pglib_opf_case240_pserc/dapi/pglib_opf_case240_pserc_3regions_dapi.m
% -------------------------------------------------------------------------
% Partitioned MATPOWER Case File
% Copyright (c) 2025 Milad Hasanzadeh
% Generated on: 2026-06-14
% This file contains partitioned data for 3 regions


% -------------------- mpc_regionR1 --------------------

mpc_regionR1.version = '2';
mpc_regionR1.baseMVA = 100.0000;
mpc_regionR1.bus = [
%	bus_i       type        Pd          Qd          Gs          Bs          area        Vm          Va          baseKV      zone        Vmax        Vmin        
	 1	 1	 447.91	 52.83	 0	 0	 31	 1	 0	 230	 1	 1.1	 0.9;
	 2	 1	 209.27	 24.93	 0	 0	 31	 1	 0	 230	 1	 1.1	 0.9;
	 3	 1	 550.68	 59.78	 0	 0	 32	 1	 0	 230	 1	 1.1	 0.9;
	 4	 1	 406.79	 40.13	 0	 0	 31	 1	 0	 115	 1	 1.1	 0.9;
	 5	 1	 314.05	 49.09	 0	 0	 31	 1	 0	 115	 1	 1.1	 0.9;
	 6	 2	 0	 0	 0	 0	 32	 1	 0	 20	 1	 1.1	 0.9;
	 7	 2	 0	 0	 0	 0	 31	 1	 0	 20	 1	 1.1	 0.9;
	 8	 1	 606.93	 97.85	 0	 0	 32	 1	 0	 230	 1	 1.1	 0.9;
	 9	 1	 769.28	 83.47	 0	 0	 32	 1	 0	 230	 1	 1.1	 0.9;
	 10	 1	 862.35	 158.48	 0	 0	 32	 1	 0	 230	 1	 1.1	 0.9;
	 11	 1	 877.69	 95.31	 0	 0	 32	 1	 0	 230	 1	 1.1	 0.9;
	 12	 1	 716.63	 77.78	 0	 0	 32	 1	 0	 230	 1	 1.1	 0.9;
	 13	 2	 0	 0	 0	 0	 32	 1	 0	 20	 1	 1.1	 0.9;
	 14	 1	 0	 0	 0	 0	 32	 1	 0	 500	 1	 1.1	 0.9;
	 15	 1	 453.19	 85.79	 0	 0	 32	 1	 0	 230	 1	 1.1	 0.9;
	 16	 1	 820.76	 150.72	 0	 0	 32	 1	 0	 230	 1	 1.1	 0.9;
	 17	 1	 700.12	 122.62	 0	 0	 32	 1	 0	 230	 1	 1.1	 0.9;
	 18	 1	 564.73	 61.23	 0	 0	 32	 1	 0	 230	 1	 1.1	 0.9;
	 19	 2	 0	 0	 0	 0	 32	 1	 0	 20	 1	 1.1	 0.9;
	 20	 1	 731.91	 135.91	 0	 0	 34	 1	 0	 230	 1	 1.1	 0.9;
	 21	 1	 0	 0	 0	 0	 34	 1	 0	 230	 1	 1.1	 0.9;
	 22	 1	 677.13	 73.58	 0	 0	 34	 1	 0	 230	 1	 1.1	 0.9;
	 23	 1	 575.42	 62.08	 0	 0	 34	 1	 0	 230	 1	 1.1	 0.9;
	 24	 1	 589.11	 63.72	 0	 0	 34	 1	 0	 230	 1	 1.1	 0.9;
	 25	 2	 0	 0	 0	 0	 34	 1	 0	 20	 1	 1.1	 0.9;
	 26	 2	 0	 0	 0	 0	 34	 1	 0	 20	 1	 1.1	 0.9;
	 27	 1	 820.24	 89.02	 0	 0	 35	 1	 0	 230	 1	 1.1	 0.9;
	 28	 2	 0	 0	 0	 0	 35	 1	 0	 20	 1	 1.1	 0.9;
	 29	 1	 137.61	 14.84	 0	 0	 36	 1	 0	 115	 1	 1.1	 0.9;
	 30	 2	 0	 0	 0	 0	 36	 1	 0	 20	 1	 1.1	 0.9;
	 31	 1	 416.08	 15.85	 0	 0	 37	 1	 0	 115	 1	 1.1	 0.9;
	 32	 2	 0	 0	 0	 0	 37	 1	 0	 20	 1	 1.1	 0.9;
	 33	 1	 250.95	 47.41	 0	 0	 38	 1	 0	 500	 1	 1.1	 0.9;
	 34	 1	 0	 0	 0	 0	 38	 1	 0	 500	 1	 1.1	 0.9;
	 35	 1	 0	 0	 0	 0	 38	 1	 0	 500	 1	 1.1	 0.9;
	 36	 1	 293.5	 55.32	 0	 0	 38	 1	 0	 230	 1	 1.1	 0.9;
	 37	 1	 655.38	 163.11	 0	 0	 38	 1	 0	 230	 1	 1.1	 0.9;
	 38	 1	 380.04	 41.37	 0	 0	 38	 1	 0	 230	 1	 1.1	 0.9;
	 39	 2	 0	 0	 0	 0	 38	 1	 0	 20	 1	 1.1	 0.9;
	 40	 2	 0	 0	 0	 0	 38	 1	 0	 20	 1	 1.1	 0.9;
	 41	 2	 0	 0	 0	 0	 38	 1	 0	 20	 1	 1.1	 0.9;
	 42	 1	 0	 0	 0	 0	 38	 1	 0	 500	 1	 1.1	 0.9;
	 43	 1	 0	 0	 0	 0	 38	 1	 0	 500	 1	 1.1	 0.9;
	 44	 1	 0	 0	 0	 0	 38	 1	 0	 500	 1	 1.1	 0.9;
	 45	 1	 0	 0	 0	 0	 38	 1	 0	 500	 1	 1.1	 0.9;
	 46	 1	 0	 0	 0	 0	 39	 1	 0	 500	 1	 1.1	 0.9;
	 47	 1	 200.78	 38.25	 0	 0	 39	 1	 0	 500	 1	 1.1	 0.9;
	 48	 1	 279.86	 30.27	 0	 0	 39	 1	 0	 500	 1	 1.1	 0.9;
	 49	 1	 0	 0	 0	 0	 39	 1	 0	 500	 1	 1.1	 0.9;
	 50	 1	 0	 0	 0	 0	 39	 1	 0	 500	 1	 1.1	 0.9;
	 51	 1	 0	 0	 0	 0	 39	 1	 0	 500	 1	 1.1	 0.9;
	 52	 1	 605.46	 63.07	 0	 0	 39	 1	 0	 230	 1	 1.1	 0.9;
	 53	 1	 262.84	 24.72	 0	 0	 39	 1	 0	 230	 1	 1.1	 0.9;
	 54	 1	 224.36	 39.78	 0	 0	 39	 1	 0	 230	 1	 1.1	 0.9;
	 55	 1	 317.38	 34.44	 0	 0	 39	 1	 0	 230	 1	 1.1	 0.9;
	 56	 1	 305.96	 47.11	 0	 0	 39	 1	 0	 230	 1	 1.1	 0.9;
	 57	 1	 174.5	-0.63	 0	 0	 39	 1	 0	 230	 1	 1.1	 0.9;
	 58	 1	 432.48	 43.44	 0	 0	 39	 1	 0	 230	 1	 1.1	 0.9;
	 59	 1	 298.89	 52.55	 0	 0	 39	 1	 0	 230	 1	 1.1	 0.9;
	 60	 1	 333.94	 53.4	 0	 0	 39	 1	 0	 230	 1	 1.1	 0.9;
	 61	 1	 155	 0	 0	 0	 39	 1	 0	 230	 1	 1.1	 0.9;
	 62	 1	 312.59	 43.99	 0	 0	 39	 1	 0	 230	 1	 1.1	 0.9;
	 63	 1	 419.01	 75.46	 0	 0	 39	 1	 0	 230	 1	 1.1	 0.9;
	 64	 1	 242.14	 24.09	 0	 0	 39	 1	 0	 230	 1	 1.1	 0.9;
	 65	 1	 226.38	 23.68	 0	 0	 39	 1	 0	 230	 1	 1.1	 0.9;
	 66	 1	 198.02	 34.82	 0	 0	 39	 1	 0	 230	 1	 1.1	 0.9;
	 67	 1	 332.61	 31.92	 0	 0	 39	 1	 0	 230	 1	 1.1	 0.9;
	 68	 1	 523.71	 67.02	 0	 0	 39	 1	 0	 230	 1	 1.1	 0.9;
	 69	 1	 436.34	 47.16	 0	 0	 39	 1	 0	 230	 1	 1.1	 0.9;
	 70	 1	 0	 0	 0	 0	 39	 1	 0	 115	 1	 1.1	 0.9;
	 71	 1	 350.86	 16.67	 0	 0	 39	 1	 0	 115	 1	 1.1	 0.9;
	 72	 2	 0	 0	 0	 0	 39	 1	 0	 20	 1	 1.1	 0.9;
	 73	 2	 0	 0	 0	 0	 39	 1	 0	 20	 1	 1.1	 0.9;
	 74	 3	 0	 0	 0	 0	 39	 1	 0	 20	 1	 1.1	 0.9;
	 75	 1	 0	 0	 0	 0	 80	 1	 0	 500	 1	 1.1	 0.9;
	 76	 1	 0	 0	 0	 0	 80	 1	 0	 500	 1	 1.1	 0.9;
	 77	 1	 856.54	 85.14	 0	 0	 80	 1	 0	 230	 1	 1.1	 0.9;
	 78	 1	 4971.06	 494.11	 0	 0	 80	 1	 0	 230	 1	 1.1	 0.9;
	 79	 1	 1733.93	 172.37	 0	 0	 80	 1	 0	 230	 1	 1.1	 0.9;
	 80	 2	 0	 0	 0	 0	 80	 1	 0	 20	 1	 1.1	 0.9;
	 81	 2	 0	 0	 0	 0	 80	 1	 0	 20	 1	 1.1	 0.9;
];

mpc_regionR1.gen = [
%	bus         Pg          Qg          Qmax        Qmin        Vg          mBase       status      Pmax        Pmin        Pc1         Pc2         Qc1min      Qc1max      Qc2min      Qc2max      ramp_agc    ramp_10     ramp_30     ramp_q      apf         
	 6	 541.5	 0	 542	-542	 1	 100	 1	 1083	 0;
	 6	 556.5	 0	 557	-557	 1	 100	 1	 1113	 0;
	 7	 380.5	 0	 381	-381	 1	 100	 1	 761	 0;
	 7	 175.5	 0	 176	-176	 1	 100	 1	 351	 0;
	 13	 646	 0	 646	-646	 1	 100	 1	 1292	 0;
	 13	 498	 5	 1244	-1234	 1	 100	 1	 996	 0;
	 13	 510	 0	 510	-510	 1	 100	 1	 1020	 0;
	 13	 458.5	 0	 459	-459	 1	 100	 1	 917	 0;
	 19	 486.5	 0	 487	-487	 1	 100	 1	 973	 0;
	 19	 463.5	 0	 464	-464	 1	 100	 1	 927	 0;
	 25	 81.5	 0	 544	-544	 1	 100	 1	 1087	-924;
	 26	 514	 0	 514	-514	 1	 100	 1	 1028	 0;
	 26	 569	 185	 939	-569	 1	 100	 1	 1138	 0;
	 28	 425	 202.5	 1004	-599	 1	 100	 1	 850	 0;
	 28	 299	 0	 299	-299	 1	 100	 1	 598	 0;
	 28	 268.5	 0	 269	-269	 1	 100	 1	 537	 0;
	 30	 168	 0	 168	-168	 1	 100	 1	 336	 0;
	 30	 106	 0	 106	-106	 1	 100	 1	 212	 0;
	 32	 2080	 0	 2080	-2080	 1	 100	 1	 4160	 0;
	 39	 712.5	 97.5	 1175	-980	 1	 100	 1	 1425	 0;
	 40	 970	 0	 970	-970	 1	 100	 1	 1940	 0;
	 40	-255	 0	 19.2	-19.2	 1	 100	 1	 0	-510;
	 41	 491.5	 0	 492	-492	 1	 100	 1	 983	 0;
	 72	 148.5	 1	 151	-149	 1	 100	 1	 297	 0;
	 72	 461.5	 169	 1284	-946	 1	 100	 1	 923	 0;
	 73	 1127	 11.5	 1150	-1127	 1	 100	 1	 2254	 0;
	 74	 404.5	-14.7	 405	-434.4	 1	 100	 1	 809	 0;
	 74	 363.5	 0	 434.4	-434.4	 1	 100	 1	 727	 0;
	 74	 919	 0	 919	-919	 1	 100	 1	 1838	 0;
	 74	 547.5	 107.5	 1256	-1041	 1	 100	 1	 1095	 0;
	 74	 323.5	 0	 434.4	-434.4	 1	 100	 1	 647	 0;
	 74	 296	 0	 521	-521	 1	 100	 1	 1041	-449;
	 80	 189	 0	 786	-786	 1	 100	 1	 378	 0;
	 81	 1400	 0	 1400	-1400	 1	 100	 1	 2800	 0;
	 81	 1400	 0	 1400	-1400	 1	 100	 1	 2800	 0;
];

mpc_regionR1.branch = [
%	fbus        tbus        r           x           b           rateA       rateB       rateC       ratio       angle       status      angmin      angmax      
	 1	 2	 0.0011	 0.0127	 0.048	 2478	 2478	 2478	 0	 0	 1	-30	 30;
	 1	 2	 0.0011	 0.0127	 0.048	 2478	 2478	 2478	 0	 0	 1	-30	 30;
	 2	 3	 0.0011	 0.0127	 0.048	 2478	 2478	 2478	 0	 0	 1	-30	 30;
	 2	 3	 0.0011	 0.0127	 0.048	 2478	 2478	 2478	 0	 0	 1	-30	 30;
	 2	 3	 0.0011	 0.0127	 0.048	 2478	 2478	 2478	 0	 0	 1	-30	 30;
	 2	 15	 0.0011	 0.0127	 0.048	 2478	 2478	 2478	 0	 0	 1	-30	 30;
	 3	 11	 0.0011	 0.0127	 0.048	 2478	 2478	 2478	 0	 0	 1	-30	 30;
	 3	 11	 0.0011	 0.0127	 0.048	 2478	 2478	 2478	 0	 0	 1	-30	 30;
	 3	 18	 0.0011	 0.0127	 0.048	 2478	 2478	 2478	 0	 0	 1	-30	 30;
	 3	 18	 0.0011	 0.0127	 0.048	 2478	 2478	 2478	 0	 0	 1	-30	 30;
	 4	 5	 0.00312	 0.02886	 0.15252	 1089	 1089	 1089	 0	 0	 1	-30	 30;
	 8	 9	 0.0011	 0.0127	 0.048	 2478	 2478	 2478	 0	 0	 1	-30	 30;
	 8	 9	 0.0011	 0.0127	 0.048	 2478	 2478	 2478	 0	 0	 1	-30	 30;
	 8	 10	 0.0011	 0.0127	 0.048	 2478	 2478	 2478	 0	 0	 1	-30	 30;
	 8	 10	 0.0011	 0.0127	 0.048	 2478	 2478	 2478	 0	 0	 1	-30	 30;
	 8	 68	 0.00312	 0.02886	 0.15252	 1089	 1089	 1089	 0	 0	 1	-30	 30;
	 8	 68	 0.00312	 0.02886	 0.15252	 1089	 1089	 1089	 0	 0	 1	-30	 30;
	 8	 69	 0.0011	 0.0127	 0.048	 2478	 2478	 2478	 0	 0	 1	-30	 30;
	 8	 69	 0.0011	 0.0127	 0.048	 2478	 2478	 2478	 0	 0	 1	-30	 30;
	 9	 10	 0.0011	 0.0127	 0.048	 2478	 2478	 2478	 0	 0	 1	-30	 30;
	 9	 10	 0.00312	 0.02886	 0.15252	 1089	 1089	 1089	 0	 0	 1	-30	 30;
	 9	 11	 0.0011	 0.0127	 0.048	 2478	 2478	 2478	 0	 0	 1	-30	 30;
	 9	 12	 0.0011	 0.0127	 0.048	 2478	 2478	 2478	 0	 0	 1	-30	 30;
	 9	 69	 0.00312	 0.02886	 0.15252	 1089	 1089	 1089	 0	 0	 1	-30	 30;
	 9	 69	 0.00312	 0.02886	 0.15252	 1089	 1089	 1089	 0	 0	 1	-30	 30;
	 10	 11	 0.0011	 0.0127	 0.048	 2478	 2478	 2478	 0	 0	 1	-30	 30;
	 10	 16	 0.0011	 0.0127	 0.048	 2478	 2478	 2478	 0	 0	 1	-30	 30;
	 10	 16	 0.00312	 0.02886	 0.15252	 1089	 1089	 1089	 0	 0	 1	-30	 30;
	 10	 18	 0.0011	 0.0127	 0.048	 2478	 2478	 2478	 0	 0	 1	-30	 30;
	 10	 68	 0.00312	 0.02886	 0.15252	 1089	 1089	 1089	 0	 0	 1	-30	 30;
	 10	 68	 0.00312	 0.02886	 0.15252	 1089	 1089	 1089	 0	 0	 1	-30	 30;
	 11	 12	 0.0011	 0.0127	 0.048	 2478	 2478	 2478	 0	 0	 1	-30	 30;
	 11	 12	 0.0011	 0.0127	 0.048	 2478	 2478	 2478	 0	 0	 1	-30	 30;
	 11	 68	 0.00312	 0.02886	 0.15252	 1089	 1089	 1089	 0	 0	 1	-30	 30;
	 11	 68	 0.00312	 0.02886	 0.15252	 1089	 1089	 1089	 0	 0	 1	-30	 30;
	 12	 59	 0.00312	 0.02886	 0.15252	 1089	 1089	 1089	 0	 0	 1	-30	 30;
	 12	 60	 0.00312	 0.02886	 0.15252	 1089	 1089	 1089	 0	 0	 1	-30	 30;
	 14	 47	 0.00053	 0.01297	 0	 2434	 2434	 2434	 0	 0	 1	-30	 30;
	 14	 48	 1e-05	-0.00755	 0	 4184	 4184	 4184	 0	 0	 1	-30	 30;
	 15	 17	 0.0011	 0.0127	 0.048	 2478	 2478	 2478	 0	 0	 1	-30	 30;
	 15	 17	 0.0011	 0.0127	 0.048	 2478	 2478	 2478	 0	 0	 1	-30	 30;
	 16	 17	 0.0011	 0.0127	 0.048	 2478	 2478	 2478	 0	 0	 1	-30	 30;
	 16	 17	 0.0011	 0.0127	 0.048	 2478	 2478	 2478	 0	 0	 1	-30	 30;
	 16	 17	 0.0011	 0.0127	 0.048	 2478	 2478	 2478	 0	 0	 1	-30	 30;
	 16	 63	 0.00312	 0.02886	 0.15252	 1089	 1089	 1089	 0	 0	 1	-30	 30;
	 16	 63	 0.00312	 0.02886	 0.15252	 1089	 1089	 1089	 0	 0	 1	-30	 30;
	 18	 68	 0.00312	 0.02886	 0.15252	 1089	 1089	 1089	 0	 0	 1	-30	 30;
	 20	 21	 0.00312	 0.02886	 0.15252	 1089	 1089	 1089	 0	 0	 1	-30	 30;
	 20	 21	 0.00312	 0.02886	 0.15252	 1089	 1089	 1089	 0	 0	 1	-30	 30;
	 20	 23	 0.00312	 0.02886	 0.15252	 1089	 1089	 1089	 0	 0	 1	-30	 30;
	 20	 24	 0.00312	 0.02886	 0.15252	 1089	 1089	 1089	 0	 0	 1	-30	 30;
	 20	 24	 0.00312	 0.02886	 0.15252	 1089	 1089	 1089	 0	 0	 1	-30	 30;
	 20	 36	 0.00312	 0.02886	 0.15252	 1089	 1089	 1089	 0	 0	 1	-30	 30;
	 22	 23	 0.00312	 0.02886	 0.15252	 1089	 1089	 1089	 0	 0	 1	-30	 30;
	 22	 36	 0.00312	 0.02886	 0.15252	 1089	 1089	 1089	 0	 0	 1	-30	 30;
	 23	 36	 0.00312	 0.02886	 0.15252	 1089	 1089	 1089	 0	 0	 1	-30	 30;
	 23	 36	 0.00312	 0.02886	 0.15252	 1089	 1089	 1089	 0	 0	 1	-30	 30;
	 23	 62	 0.00312	 0.02886	 0.15252	 1089	 1089	 1089	 0	 0	 1	-30	 30;
	 23	 63	 0.00312	 0.02886	 0.15252	 1089	 1089	 1089	 0	 0	 1	-30	 30;
	 24	 52	 0.00312	 0.02886	 0.15252	 1089	 1089	 1089	 0	 0	 1	-30	 30;
	 24	 52	 0.00312	 0.02886	 0.15252	 1089	 1089	 1089	 0	 0	 1	-30	 30;
	 27	 59	 0.00312	 0.02886	 0.15252	 1089	 1089	 1089	 0	 0	 1	-30	 30;
	 27	 60	 0.00312	 0.02886	 0.15252	 1089	 1089	 1089	 0	 0	 1	-30	 30;
	 29	 70	 0.00312	 0.02886	 0.15252	 1089	 1089	 1089	 0	 0	 1	-30	 30;
	 31	 71	 0.00312	 0.02886	 0.15252	 1089	 1089	 1089	 0	 0	 1	-30	 30;
	 31	 71	 0.00312	 0.02886	 0.15252	 1089	 1089	 1089	 0	 0	 1	-30	 30;
	 33	 34	 0.00079	 0.01937	 1.3285	 1630	 1630	 1630	 0	 0	 1	-30	 30;
	 33	 35	 0.00087	 0.02087	 1.4571	 1513	 1513	 1513	 0	 0	 1	-30	 30;
	 33	 35	 0.00087	 0.02087	 1.4571	 1513	 1513	 1513	 0	 0	 1	-30	 30;
	 34	 42	 0.00072	 0.016	 1.0879	 1973	 1973	 1973	 0	 0	 1	-30	 30;
	 34	 46	 0.00083	 0.01985	 0	 1590	 1590	 1590	 0	 0	 1	-30	 30;
	 35	 42	 2e-05	-0.00998	 0	 3166	 3166	 3166	 0	 0	 1	-30	 30;
	 35	 43	 0	-0.00935	 0	 3379	 3379	 3379	 0	 0	 1	-30	 30;
	 35	 44	 0	-0.00944	 0	 3347	 3347	 3347	 0	 0	 1	-30	 30;
	 35	 45	 0	-0.00935	 0	 3379	 3379	 3379	 0	 0	 1	-30	 30;
	 35	 46	 0.00153	 0.0147	 0	 2138	 2138	 2138	 0	 0	 1	-30	 30;
	 36	 38	 0.00312	 0.02886	 0.15252	 1089	 1089	 1089	 0	 0	 1	-30	 30;
	 37	 38	 0.00312	 0.02886	 0.15252	 1089	 1089	 1089	 0	 0	 1	-30	 30;
	 46	 47	 0.00053	 0.01297	 0	 2434	 2434	 2434	 0	 0	 1	-30	 30;
	 46	 48	 0.00093	 0.03644	 1.3895	 867	 867	 867	 0	 0	 1	-30	 30;
	 46	 76	 2e-05	-0.01331	 0	 2374	 2374	 2374	 0	 0	 1	-30	 30;
	 48	 49	 1e-05	-0.01098	 0	 2877	 2877	 2877	 0	 0	 1	-30	 30;
	 48	 50	 0.00098	 0.01035	 0	 3039	 3039	 3039	 0	 0	 1	-30	 30;
	 48	 76	 0.00165	 0.05719	 2.4774	 553	 553	 553	 0	 0	 1	-30	 30;
	 49	 50	 0.0016	 0.01229	 0	 2549	 2549	 2549	 0	 0	 1	-30	 30;
	 50	 51	 0.00072	 0.00346	 0	 8938	 8938	 8938	 0	 0	 1	-30	 30;
	 52	 53	 0.00312	 0.02886	 0.15252	 1089	 1089	 1089	 0	 0	 1	-30	 30;
	 52	 68	 0.00312	 0.02886	 0.15252	 1089	 1089	 1089	 0	 0	 1	-30	 30;
	 52	 78	 0.01382	 0.09268	 0.1106	 338	 338	 338	 0	 0	 1	-30	 30;
	 53	 65	 0.00312	 0.02886	 0.15252	 1089	 1089	 1089	 0	 0	 1	-30	 30;
	 54	 64	 0.00312	 0.02886	 0.15252	 1089	 1089	 1089	 0	 0	 1	-30	 30;
	 54	 65	 0.00312	 0.02886	 0.15252	 1089	 1089	 1089	 0	 0	 1	-30	 30;
	 55	 56	 0.02482	 0.16938	 0.20232	 185	 185	 185	 0	 0	 1	-30	 30;
	 55	 69	 0.0148	 0.10101	 0.12066	 310	 310	 310	 0	 0	 1	-30	 30;
	 56	 57	 0.01382	 0.09268	 0.1106	 338	 338	 338	 0	 0	 1	-30	 30;
	 56	 61	 0.01668	 0.11381	 0.13608	 275	 275	 275	 0	 0	 1	-30	 30;
	 56	 66	 0.01113	 0.06678	 0.07286	 467	 467	 467	 0	 0	 1	-30	 30;
	 56	 66	 0.0105	 0.0654	 0.0686	 477	 477	 477	 0	 0	 1	-30	 30;
	 56	 66	 0.01105	 0.06642	 0.0716	 470	 470	 470	 0	 0	 1	-30	 30;
	 56	 69	 0.03903	 0.27403	 0.31072	 115	 115	 115	 0	 0	 1	-30	 30;
	 56	 77	 0.01382	 0.09268	 0.1106	 338	 338	 338	 0	 0	 1	-30	 30;
	 56	 77	 0.01382	 0.09268	 0.1106	 338	 338	 338	 0	 0	 1	-30	 30;
	 57	 69	 0.03058	 0.2046	 0.24472	 153	 153	 153	 0	 0	 1	-30	 30;
	 58	 65	 0.00312	 0.02886	 0.15252	 1089	 1089	 1089	 0	 0	 1	-30	 30;
	 58	 65	 0.00312	 0.02886	 0.15252	 1089	 1089	 1089	 0	 0	 1	-30	 30;
	 58	 68	 0.00312	 0.02886	 0.15252	 1089	 1089	 1089	 0	 0	 1	-30	 30;
	 58	 78	 0.01382	 0.09268	 0.1106	 338	 338	 338	 0	 0	 1	-30	 30;
	 60	 69	 0.00312	 0.02886	 0.15252	 1089	 1089	 1089	 0	 0	 1	-30	 30;
	 61	 69	 0.02235	 0.16106	 0.18342	 195	 195	 195	 0	 0	 1	-30	 30;
	 64	 67	 0.00312	 0.02886	 0.15252	 1089	 1089	 1089	 0	 0	 1	-30	 30;
	 65	 67	 0.00312	 0.02886	 0.15252	 1089	 1089	 1089	 0	 0	 1	-30	 30;
	 68	 79	 0.01382	 0.09268	 0.1106	 338	 338	 338	 0	 0	 1	-30	 30;
	 68	 79	 0.01382	 0.09268	 0.1106	 338	 338	 338	 0	 0	 1	-30	 30;
	 75	 76	 0.00159	 0.0111	 0	 2817	 2817	 2817	 0	 0	 1	-30	 30;
	 77	 78	 0.01952	 0.13702	 0.15536	 229	 229	 229	 0	 0	 1	-30	 30;
	 77	 79	 0.03903	 0.27403	 0.31072	 115	 115	 115	 0	 0	 1	-30	 30;
	 77	 79	 0.03903	 0.27403	 0.31072	 115	 115	 115	 0	 0	 1	-30	 30;
	 78	 79	 0.01952	 0.13702	 0.15536	 229	 229	 229	 0	 0	 1	-30	 30;
	 2	 4	 0.00089	 0.0299	 0	 1056	 1056	 1056	 1	 0	 1	-30	 30;
	 14	 16	 0.0003	 0.0174	 0	 1816	 1816	 1816	 1	 0	 1	-30	 30;
	 14	 16	 0.0003	 0.0174	 0	 1816	 1816	 1816	 1	 0	 1	-30	 30;
	 14	 16	 0.0003	 0.0174	 0	 1816	 1816	 1816	 1	 0	 1	-30	 30;
	 34	 36	 0.0003	 0.0174	 0	 1816	 1816	 1816	 1	 0	 1	-30	 30;
	 35	 37	 0.0003	 0.0174	 0	 1816	 1816	 1816	 1	 0	 1	-30	 30;
	 35	 37	 0.0002	 0.0119	 0	 2655	 2655	 2655	 1	 0	 1	-30	 30;
	 46	 62	 0.0003	 0.0174	 0	 1816	 1816	 1816	 1	 0	 1	-30	 30;
	 47	 63	 0.0003	 0.0174	 0	 1816	 1816	 1816	 1	 0	 1	-30	 30;
	 48	 68	 0.0003	 0.0174	 0	 1816	 1816	 1816	 1	 0	 1	-30	 30;
	 49	 69	 0.0002	 0.0125	 0	 2527	 2527	 2527	 1	 0	 1	-30	 30;
	 50	 67	 0.0003	 0.0174	 0	 1816	 1816	 1816	 1	 0	 1	-30	 30;
	 51	 66	 0.0001	 0.0174	 0	 1816	 1816	 1816	 1	 0	 1	-30	 30;
	 56	 70	 0.00089	 0.0299	 0	 1056	 1056	 1056	 1	 0	 1	-30	 30;
	 65	 71	 0.00089	 0.0299	 0	 1056	 1056	 1056	 1	 0	 1	-30	 30;
	 65	 71	 0.00089	 0.0299	 0	 1056	 1056	 1056	 1	 0	 1	-30	 30;
	 75	 77	 0.0001	 0.0174	 0	 1816	 1816	 1816	 1	 0	 1	-30	 30;
	 76	 79	 0.0003	 0.0174	 0	 1816	 1816	 1816	 1	 0	 1	-30	 30;
	 3	 6	 0	 0.0005	 0	 63175	 63175	 63175	 1	 0	 1	-30	 30;
	 5	 7	 0	 0.0005	 0	 63175	 63175	 63175	 1	 0	 1	-30	 30;
	 11	 13	 0	 0.0005	 0	 63175	 63175	 63175	 1	 0	 1	-30	 30;
	 16	 19	 0	 0.0005	 0	 63175	 63175	 63175	 1	 0	 1	-30	 30;
	 21	 25	 0	 0.0005	 0	 63175	 63175	 63175	 1	 0	 1	-30	 30;
	 22	 26	 0	 0.0005	 0	 63175	 63175	 63175	 1	 0	 1	-30	 30;
	 27	 28	 0	 0.0005	 0	 63175	 63175	 63175	 1	 0	 1	-30	 30;
	 29	 30	 0	 0.0005	 0	 63175	 63175	 63175	 1	 0	 1	-30	 30;
	 31	 32	 0	 0.0005	 0	 63175	 63175	 63175	 1	 0	 1	-30	 30;
	 33	 39	 0	 0.0005	 0	 63175	 63175	 63175	 1	 0	 1	-30	 30;
	 37	 40	 0	 0.0005	 0	 63175	 63175	 63175	 1	 0	 1	-30	 30;
	 38	 41	 0	 0.0005	 0	 63175	 63175	 63175	 1	 0	 1	-30	 30;
	 47	 73	 0	 0.0005	 0	 63175	 63175	 63175	 1	 0	 1	-30	 30;
	 66	 72	 0	 0.0005	 0	 63175	 63175	 63175	 1	 0	 1	-30	 30;
	 68	 74	 0	 0.0005	 0	 63175	 63175	 63175	 1	 0	 1	-30	 30;
	 77	 80	 0	 0.0005	 0	 63175	 63175	 63175	 1	 0	 1	-30	 30;
	 78	 81	 0	 0.0005	 0	 63175	 63175	 63175	 1	 0	 1	-30	 30;
];

mpc_regionR1.gencost = [
%	2           startup     shutdown    n           c(n-1)...c0 
	 2	 0	 0	 3	 0	 60.295192	 0;
	 2	 0	 0	 3	 0	 115.784252	 0;
	 2	 0	 0	 3	 0	 19.747758	 0;
	 2	 0	 0	 3	 0	 139.406671	 0;
	 2	 0	 0	 3	 0	 40.62684	 0;
	 2	 0	 0	 3	 0	 33.390411	 0;
	 2	 0	 0	 3	 0	 9.116809	 0;
	 2	 0	 0	 3	 0	 22.599236	 0;
	 2	 0	 0	 3	 0	 36.557379	 0;
	 2	 0	 0	 3	 0	 29.600547	 0;
	 2	 0	 0	 3	 0	 23.127115	 0;
	 2	 0	 0	 3	 0	 19.029025	 0;
	 2	 0	 0	 3	 0	 26.628665	 0;
	 2	 0	 0	 3	 0	 23.06917	 0;
	 2	 0	 0	 3	 0	 19.755158	 0;
	 2	 0	 0	 3	 0	 111.468783	 0;
	 2	 0	 0	 3	 0	 37.36433	 0;
	 2	 0	 0	 3	 0	 29.305594	 0;
	 2	 0	 0	 3	 0	 43.487946	 0;
	 2	 0	 0	 3	 0	 18.009089	 0;
	 2	 0	 0	 3	 0	 27.186796	 0;
	 2	 0	 0	 3	 0	 0	 0;
	 2	 0	 0	 3	 0	 39.855613	 0;
	 2	 0	 0	 3	 0	 52.291471	 0;
	 2	 0	 0	 3	 0	 32.821502	 0;
	 2	 0	 0	 3	 0	 22.434142	 0;
	 2	 0	 0	 3	 0	 35.060251	 0;
	 2	 0	 0	 3	 0	 58.640953	 0;
	 2	 0	 0	 3	 0	 40.111583	 0;
	 2	 0	 0	 3	 0	 10.724076	 0;
	 2	 0	 0	 3	 0	 29.604602	 0;
	 2	 0	 0	 3	 0	 7.148098	 0;
	 2	 0	 0	 3	 0	 114.365663	 0;
	 2	 0	 0	 3	 0	 24.14915	 0;
	 2	 0	 0	 3	 0	 24.948779	 0;
];


% -------------------- mpc_regionR2 --------------------

mpc_regionR2.version = '2';
mpc_regionR2.baseMVA = 100.0000;
mpc_regionR2.bus = [
%	bus_i       type        Pd          Qd          Gs          Bs          area        Vm          Va          baseKV      zone        Vmax        Vmin        
	 1	 1	 1362.16	 5.52	 0	 0	 10	 1	 0	 345	 1	 1.1	 0.9;
	 2	 2	 0	 0	 0	 0	 10	 1	 0	 20	 1	 1.1	 0.9;
	 3	 1	 2050.78	 0	 0	 0	 90	 1	 0	 345	 1	 1.1	 0.9;
	 4	 2	 0	 0	 0	 0	 90	 1	 0	 20	 1	 1.1	 0.9;
	 5	 1	 0	 0	 0	 0	 40	 1	 0	 500	 1	 1.1	 0.9;
	 6	 1	 221.37	 22	 0	 0	 40	 1	 0	 500	 1	 1.1	 0.9;
	 7	 1	 0	 0	 0	 0	 40	 1	 0	 500	 1	 1.1	 0.9;
	 8	 1	 354.93	 35.3	 0	 0	 40	 1	 0	 500	 1	 1.1	 0.9;
	 9	 1	 630.08	 157.42	 0	 0	 40	 1	 0	 500	 1	 1.1	 0.9;
	 10	 1	 0	 0	 0	 0	 40	 1	 0	 500	 1	 1.1	 0.9;
	 11	 1	 0	 0	 0	 0	 40	 1	 0	 500	 1	 1.1	 0.9;
	 12	 1	 374.21	 37.2	 0	 0	 40	 1	 0	 345	 1	 1.1	 0.9;
	 13	 1	 2898.65	 431.39	 0	 0	 40	 1	 0	 230	 1	 1.1	 0.9;
	 14	 1	 3133.61	 0	 0	 0	 90	 1	 0	 230	 1	 1.1	 0.9;
	 15	 2	 0	 0	 0	 0	 40	 1	 0	 20	 1	 1.1	 0.9;
	 16	 2	 0	 0	 0	 0	 40	 1	 0	 20	 1	 1.1	 0.9;
	 17	 2	 0	 0	 0	 0	 40	 1	 0	 20	 1	 1.1	 0.9;
	 18	 1	 0	 0	 0	 0	 40	 1	 0	 500	 1	 1.1	 0.9;
	 19	 1	 0	 0	 0	 0	 40	 1	 0	 500	 1	 1.1	 0.9;
	 20	 1	 0	 0	 0	 0	 40	 1	 0	 500	 1	 1.1	 0.9;
	 21	 1	 0	 0	 0	 0	 40	 1	 0	 500	 1	 1.1	 0.9;
	 22	 1	 0	 0	 0	 0	 40	 1	 0	 500	 1	 1.1	 0.9;
	 23	 1	 0	 0	 0	 0	 40	 1	 0	 500	 1	 1.1	 0.9;
	 24	 1	 0	 0	 0	 0	 40	 1	 0	 500	 1	 1.1	 0.9;
	 25	 1	 0	 0	 0	 0	 40	 1	 0	 500	 1	 1.1	 0.9;
	 26	 1	 1305.83	 129.78	 0	 0	 40	 1	 0	 500	 1	 1.1	 0.9;
	 27	 1	 630.78	 68.66	 0	 0	 40	 1	 0	 500	 1	 1.1	 0.9;
	 28	 1	 15.26	 1.51	 0	 0	 40	 1	 0	 500	 1	 1.1	 0.9;
	 29	 1	 3317.33	 329.74	 0	 0	 40	 1	 0	 230	 1	 1.1	 0.9;
	 30	 2	 0	 0	 0	 0	 40	 1	 0	 20	 1	 1.1	 0.9;
	 31	 2	 0	 0	 0	 0	 40	 1	 0	 20	 1	 1.1	 0.9;
	 32	 1	 7562.65	 461.01	 0	 0	 40	 1	 0	 500	 1	 1.1	 0.9;
	 33	 1	 5982.03	 594.63	 0	 0	 40	 1	 0	 500	 1	 1.1	 0.9;
	 34	 1	 5747.62	 571.33	 0	 0	 40	 1	 0	 500	 1	 1.1	 0.9;
	 35	 1	 1331.41	 132.34	 0	 0	 40	 1	 0	 500	 1	 1.1	 0.9;
	 36	 2	 0	 0	 0	 0	 40	 1	 0	 20	 1	 1.1	 0.9;
	 37	 2	 0	 0	 0	 0	 40	 1	 0	 20	 1	 1.1	 0.9;
	 38	 1	 9939.84	 1721.38	 0	 0	 50	 1	 0	 500	 1	 1.1	 0.9;
	 39	 1	 11816.42	 1174.36	 0	 0	 50	 1	 0	 500	 1	 1.1	 0.9;
	 40	 1	 807.38	 80.25	 0	 0	 50	 1	 0	 230	 1	 1.1	 0.9;
	 41	 1	 0	 0	 0	 0	 50	 1	 0	 230	 1	 1.1	 0.9;
	 42	 2	 0	 0	 0	 0	 50	 1	 0	 20	 1	 1.1	 0.9;
	 43	 2	 0	 0	 0	 0	 50	 1	 0	 20	 1	 1.1	 0.9;
	 44	 1	 0	 0	 0	 0	 61	 1	 0	 500	 1	 1.1	 0.9;
	 45	 1	 1053.14	-345.28	 0	 0	 61	 1	 0	 345	 1	 1.1	 0.9;
	 46	 1	 514.3	 51.11	 0	 0	 61	 1	 0	 345	 1	 1.1	 0.9;
	 47	 1	 2224.39	 221.09	 0	 0	 61	 1	 0	 230	 1	 1.1	 0.9;
	 48	 2	 0	 0	 0	 0	 61	 1	 0	 20	 1	 1.1	 0.9;
	 49	 1	 270.11	 26.86	 0	 0	 60	 1	 0	 500	 1	 1.1	 0.9;
	 50	 1	 116.43	 13.53	 0	 0	 60	 1	 0	 500	 1	 1.1	 0.9;
	 51	 1	 1459.79	 145.09	 0	 0	 60	 1	 0	 230	 1	 1.1	 0.9;
	 52	 1	 1573.9	 156.46	 0	 0	 60	 1	 0	 230	 1	 1.1	 0.9;
	 53	 1	 642.11	 86.34	 0	 0	 60	 1	 0	 230	 1	 1.1	 0.9;
	 54	 2	 0	 0	 0	 0	 60	 1	 0	 20	 1	 1.1	 0.9;
	 55	 2	 0	 0	 0	 0	 60	 1	 0	 20	 1	 1.1	 0.9;
	 56	 1	 677.67	 67.36	 0	 0	 60	 1	 0	 345	 1	 1.1	 0.9;
	 57	 1	 776.68	 77.22	 0	 0	 60	 1	 0	 345	 1	 1.1	 0.9;
	 58	 1	 979.81	 97.4	 0	 0	 60	 1	 0	 230	 1	 1.1	 0.9;
	 59	 1	 0	 0	 0	 0	 60	 1	 0	 230	 1	 1.1	 0.9;
	 60	 1	 79.05	 19.75	 0	 0	 60	 1	 0	 230	 1	 1.1	 0.9;
	 61	 2	 0	 0	 0	 0	 60	 1	 0	 20	 1	 1.1	 0.9;
	 62	 2	 0	 0	 0	 0	 60	 1	 0	 20	 1	 1.1	 0.9;
	 63	 1	 2194.75	 218.15	 0	 0	 64	 1	 0	 345	 1	 1.1	 0.9;
	 64	 1	 357.63	 35.57	 0	 0	 64	 1	 0	 115	 1	 1.1	 0.9;
	 65	 1	 2.89	 0.27	 0	 0	 64	 1	 0	 345	 1	 1.1	 0.9;
	 66	 1	 38.03	 3.77	 0	 0	 64	 1	 0	 345	 1	 1.1	 0.9;
	 67	 2	 0	 0	 0	 0	 64	 1	 0	 20	 1	 1.1	 0.9;
	 68	 1	 256.63	 64.13	 0	 0	 60	 1	 0	 345	 1	 1.1	 0.9;
	 69	 1	 2041.47	 277.67	 0	 0	 60	 1	 0	 345	 1	 1.1	 0.9;
	 70	 1	 578.95	 144.6	 0	 0	 60	 1	 0	 345	 1	 1.1	 0.9;
	 71	 1	 389.73	 38.73	 0	 0	 60	 1	 0	 345	 1	 1.1	 0.9;
	 72	 1	 8.92	 2.23	 0	 0	 60	 1	 0	 345	 1	 1.1	 0.9;
	 73	 1	 0	 0	 0	 0	 60	 1	 0	 345	 1	 1.1	 0.9;
	 74	 1	 540.77	-61.35	 0	 0	 60	 1	 0	 345	 1	 1.1	 0.9;
	 75	 1	 173.01	 43.21	 0	 0	 60	 1	 0	 345	 1	 1.1	 0.9;
	 76	 1	 11.28	 2.82	 0	 0	 60	 1	 0	 345	 1	 1.1	 0.9;
	 77	 1	 1946.02	-103.88	 0	 0	 60	 1	 0	 230	 1	 1.1	 0.9;
	 78	 2	 0	 0	 0	 0	 60	 1	 0	 20	 1	 1.1	 0.9;
	 79	 1	 9782.18	 972.35	 0	 0	 60	 1	 0	 345	 1	 1.1	 0.9;
	 80	 1	 2554.83	-138.07	 0	 0	 60	 1	 0	 345	 1	 1.1	 0.9;
	 81	 2	 0	 0	 0	 0	 60	 1	 0	 20	 1	 1.1	 0.9;
	 82	 2	 0	 0	 0	 0	 60	 1	 0	 20	 1	 1.1	 0.9;
];

mpc_regionR2.gen = [
%	bus         Pg          Qg          Qmax        Qmin        Vg          mBase       status      Pmax        Pmin        Pc1         Pc2         Qc1min      Qc1max      Qc2min      Qc2max      ramp_agc    ramp_10     ramp_30     ramp_q      apf         
	 2	 354.5	 0	 2294	-2294	 1	 100	 1	 709	 0;
	 2	 271	 0	 918	-918	 1	 100	 1	 542	 0;
	 2	 541	 0	 700	-700	 1	 100	 1	 1082	 0;
	 4	 1969.5	 0	 1970	-1970	 1	 100	 1	 3939	 0;
	 17	 873.5	 0	 958.8	-958.8	 1	 100	 1	 1747	 0;
	 17	 848	 0	 1459	-1459	 1	 100	 1	 1696	 0;
	 17	 642.5	 0	 958.8	-958.8	 1	 100	 1	 1285	 0;
	 15	 1300	 0	 1300	-1300	 1	 100	 1	 2600	 0;
	 15	 1353.5	 0	 1354	-1354	 1	 100	 1	 2707	 0;
	 15	 1300	 0	 1300	-1300	 1	 100	 1	 2600	 0;
	 15	 1353.5	 0	 1354	-1354	 1	 100	 1	 2707	 0;
	 16	 366	 0	 721.2	-721.2	 1	 100	 1	 732	 0;
	 16	 295.5	 0	 721.2	-721.2	 1	 100	 1	 591	 0;
	 16	 465.5	 0	 1836	-1836	 1	 100	 1	 931	 0;
	 16	 373.5	 0	 721.2	-721.2	 1	 100	 1	 747	 0;
	 30	 655	 0	 6482	-6482	 1	 100	 1	 1310	 0;
	 30	 682.5	 0	 683	-683	 1	 100	 1	 1365	 0;
	 31	 174	 0	 1473	-1473	 1	 100	 1	 348	 0;
	 31	 66.5	 0	 2847	-2847	 1	 100	 1	 133	 0;
	 31	 303.5	 0	 580	-580	 1	 100	 1	 607	 0;
	 31	 125	 0	 231	-231	 1	 100	 1	 250	 0;
	 31	 173	 0	 173	-173	 1	 100	 1	 346	 0;
	 36	 330.5	 0	 728	-728	 1	 100	 1	 661	 0;
	 36	 318	 0	 659	-659	 1	 100	 1	 636	 0;
	 36	 536.5	 0	 1808	-1808	 1	 100	 1	 1073	 0;
	 36	 358.5	 0	 359	-359	 1	 100	 1	 717	 0;
	 37	 3030	 0	 3030	-3030	 1	 100	 1	 6060	 0;
	 37	 3155.5	 0	 3156	-3156	 1	 100	 1	 6311	 0;
	 37	 3155.5	 0	 3156	-3156	 1	 100	 1	 6311	 0;
	 42	 2897	 0	 2897	-2897	 1	 100	 1	 5794	 0;
	 42	 2781.5	 0	 4399	-4399	 1	 100	 1	 5563	 0;
	 43	 1488	 0	 2977	-2977	 1	 100	 1	 2976	 0;
	 43	 1488	 0	 2200	-2200	 1	 100	 1	 2976	 0;
	 43	 1488	 0	 2205	-2205	 1	 100	 1	 2976	 0;
	 43	 1549.5	 0	 1550	-1550	 1	 100	 1	 3099	 0;
	 43	 1549.5	 0	 1550	-1550	 1	 100	 1	 3099	 0;
	 48	 270.5	 0	 271	-271	 1	 100	 1	 541	 0;
	 48	 233	 0	 233	-233	 1	 100	 1	 466	 0;
	 48	 255	 0	 1072	-1072	 1	 100	 1	 510	 0;
	 48	 228	 0	 228	-228	 1	 100	 1	 456	 0;
	 48	 253.5	 0	 254	-254	 1	 100	 1	 507	 0;
	 54	 425.5	 0	 1256	-1256	 1	 100	 1	 851	 0;
	 54	 206	 0	 206	-206	 1	 100	 1	 412	 0;
	 55	 448	 0	 448	-448	 1	 100	 1	 896	 0;
	 55	 309.5	 0	 347	-347	 1	 100	 1	 619	 0;
	 55	 291.5	 0	 292	-292	 1	 100	 1	 583	 0;
	 61	 569.5	 0	 1671	-1671	 1	 100	 1	 1139	 0;
	 61	 755	 0	 755	-755	 1	 100	 1	 1510	 0;
	 62	 76	 0	 968	-968	 1	 100	 1	 152	 0;
	 62	 181	 0	 330	-330	 1	 100	 1	 362	 0;
	 62	 104.5	 0	 406	-406	 1	 100	 1	 209	 0;
	 67	 249	 0	 283	-283	 1	 100	 1	 498	 0;
	 67	 154.5	 0	 155	-155	 1	 100	 1	 309	 0;
	 67	 250	 0	 536	-536	 1	 100	 1	 500	 0;
	 67	 105	 0	 105	-105	 1	 100	 1	 210	 0;
	 67	 112.5	 0	 113	-113	 1	 100	 1	 225	 0;
	 78	 492.5	 0	 1924	-1924	 1	 100	 1	 985	 0;
	 78	 398	 0	 398	-398	 1	 100	 1	 796	 0;
	 78	 430	 0	 880	-880	 1	 100	 1	 860	 0;
	 78	 387	 0	 387	-387	 1	 100	 1	 774	 0;
	 78	 387	 0	 387	-387	 1	 100	 1	 774	 0;
	 81	 1139.5	 0	 1419	-1419	 1	 100	 1	 2279	 0;
	 81	 1139.5	 0	 2092	-2092	 1	 100	 1	 2279	 0;
	 81	 832	 0	 999	-999	 1	 100	 1	 1997	-333;
	 81	 1186.5	 0	 1187	-1187	 1	 100	 1	 2373	 0;
	 81	 1219.5	 0	 1220	-1220	 1	 100	 1	 2439	 0;
	 82	 680.5	 0	 826	-826	 1	 100	 1	 1361	 0;
	 82	 461	 0	 489	-489	 1	 100	 1	 922	 0;
	 82	 452	 0	 452	-452	 1	 100	 1	 904	 0;
	 82	 264.5	 0	 365	-365	 1	 100	 1	 729	-200;
];

mpc_regionR2.branch = [
%	fbus        tbus        r           x           b           rateA       rateB       rateC       ratio       angle       status      angmin      angmax      
	 1	 79	 0.03903	 0.27403	 2	 115	 115	 115	 0	 0	 1	-30	 30;
	 1	 80	 0.00977	 0.11	 2	 287	 287	 287	 0	 0	 1	-30	 30;
	 3	 66	 0.0108	 0.0965	 0.3296	 326	 326	 326	 0	 0	 1	-30	 30;
	 3	 71	 0.0018	 0.0245	 0.4392	 1286	 1286	 1286	 0	 0	 1	-30	 30;
	 3	 71	 0.0018	 0.0245	 0.4392	 1286	 1286	 1286	 0	 0	 1	-30	 30;
	 5	 35	 0.00078	 0.00239	 1.1381	 12565	 12565	 12565	 0	 0	 1	-30	 30;
	 5	 18	 0.00072	 0.01382	 1.27572	 2283	 2283	 2283	 0	 0	 1	-30	 30;
	 5	 22	 0.00078	 0.01502	 1.1381	 2101	 2101	 2101	 0	 0	 1	-30	 30;
	 5	 25	 0.00074	 0.01413	 1.06634	 2233	 2233	 2233	 0	 0	 1	-30	 30;
	 6	 7	 0.00122	 0.02373	 2.2071	 1330	 1330	 1330	 0	 0	 1	-30	 30;
	 6	 18	 0.00012	 0.00238	 0.21926	 13256	 13256	 13256	 0	 0	 1	-30	 30;
	 6	 19	 0.0006	 0.01036	 1.01456	 3044	 3044	 3044	 0	 0	 1	-30	 30;
	 7	 44	 0.00264	 0.02689	 5.29066	 1170	 1170	 1170	 0	 0	 1	-30	 30;
	 8	 9	 0.00063	 0.01412	 1.09756	 2235	 2235	 2235	 0	 0	 1	-30	 30;
	 8	 9	 0.00109	 0.02408	 1.55542	 1311	 1311	 1311	 0	 0	 1	-30	 30;
	 8	 9	 0.00108	 0.02409	 1.55348	 1310	 1310	 1310	 0	 0	 1	-30	 30;
	 8	 19	 0.00041	 0.00737	 0.72694	 4280	 4280	 4280	 0	 0	 1	-30	 30;
	 8	 20	 0.00066	 0.01266	 0.95976	 2492	 2492	 2492	 0	 0	 1	-30	 30;
	 8	 23	 0.00066	 0.01266	 0.95976	 2492	 2492	 2492	 0	 0	 1	-30	 30;
	 9	 10	 0.00023	 0.00451	 0.3332	 6995	 6995	 6995	 0	 0	 1	-30	 30;
	 9	 10	 0.0002	 0.00446	 0.305	 7076	 7076	 7076	 0	 0	 1	-30	 30;
	 9	 27	 0.0012	 0.02316	 1.7152	 1363	 1363	 1363	 0	 0	 1	-30	 30;
	 9	 27	 0.0003	 0.02	 3.6	 1580	 1580	 1580	 0	 0	 1	-30	 30;
	 9	 33	 0.0002	 0.0082	 1.3	 3851	 3851	 3851	 0	 0	 1	-30	 30;
	 9	 50	 0.00196	 0.03304	 1.88	 955	 955	 955	 0	 0	 1	-30	 30;
	 10	 11	 1e-05	 0.0003	 0.01434	 105233	 105233	 105233	 0	 0	 1	-30	 30;
	 10	 11	 1e-05	 0.0003	 0.01844	 105233	 105233	 105233	 0	 0	 1	-30	 30;
	 10	 33	 0.0002	 0.0082	 1.3	 3851	 3851	 3851	 0	 0	 1	-30	 30;
	 12	 63	 0.0062	 0.0673	 1.1156	 468	 468	 468	 0	 0	 1	-30	 30;
	 13	 14	 6e-05	 0.00131	 0.00378	 24088	 24088	 24088	 0	 0	 1	-30	 30;
	 13	 14	 6e-05	 0.00116	 0.00332	 27195	 27195	 27195	 0	 0	 1	-30	 30;
	 13	 29	 0.002	 0.02	 0.8	 1572	 1572	 1572	 0	 0	 1	-30	 30;
	 20	 21	 0	 0.00165	 0	 19144	 19144	 19144	 0	 0	 1	-30	 30;
	 21	 22	 0	-0.01263	 0	 2501	 2501	 2501	 0	 0	 1	-30	 30;
	 23	 24	 0	 0.00165	 0	 19144	 19144	 19144	 0	 0	 1	-30	 30;
	 24	 25	 0	-0.01263	 0	 2501	 2501	 2501	 0	 0	 1	-30	 30;
	 26	 27	 0.00113	 0.02069	 1.85526	 1525	 1525	 1525	 0	 0	 1	-30	 30;
	 26	 27	 0.00113	 0.02069	 1.85526	 1525	 1525	 1525	 0	 0	 1	-30	 30;
	 26	 28	 0.0007	 0.074	 4.87	 427	 427	 427	 0	 0	 1	-30	 30;
	 26	 28	 0.002	 0.02	 0.8	 1572	 1572	 1572	 0	 0	 1	-30	 30;
	 26	 32	 0.0002	 0.0082	 1.3	 3851	 3851	 3851	 0	 0	 1	-30	 30;
	 26	 32	 0.0002	 0.0082	 1.3	 3851	 3851	 3851	 0	 0	 1	-30	 30;
	 27	 32	 0.0002	 0.0082	 1.3	 3851	 3851	 3851	 0	 0	 1	-30	 30;
	 27	 32	 0.0002	 0.0082	 1.3	 3851	 3851	 3851	 0	 0	 1	-30	 30;
	 27	 33	 0.0002	 0.0082	 1.3	 3851	 3851	 3851	 0	 0	 1	-30	 30;
	 27	 33	 0.0002	 0.0082	 1.3	 3851	 3851	 3851	 0	 0	 1	-30	 30;
	 27	 50	 0.00142	 0.02258	 1.88	 1397	 1397	 1397	 0	 0	 1	-30	 30;
	 28	 50	 0.0007	 0.074	 4.87	 427	 427	 427	 0	 0	 1	-30	 30;
	 29	 41	 0.002	 0.02	 0.8	 1572	 1572	 1572	 0	 0	 1	-30	 30;
	 32	 33	 0.00109	 0.02408	 1.55542	 1311	 1311	 1311	 0	 0	 1	-30	 30;
	 32	 38	 0.00083	 0.0239	 3.3	 1321	 1321	 1321	 0	 0	 1	-30	 30;
	 33	 34	 0.00066	 0.00165	 0.95976	 17775	 17775	 17775	 0	 0	 1	-30	 30;
	 34	 35	 0.00074	 0.01266	 1.0822	 2491	 2491	 2491	 0	 0	 1	-30	 30;
	 38	 39	 0.0035	 0.07	 4.606	 451	 451	 451	 0	 0	 1	-30	 30;
	 40	 41	 0.002	 0.02	 0.8	 1572	 1572	 1572	 0	 0	 1	-30	 30;
	 45	 46	 0.0012	 0.02316	 1.7152	 1363	 1363	 1363	 0	 0	 1	-30	 30;
	 45	 56	 0	 0.0046	 0	 6867	 6867	 6867	 0	 0	 1	-30	 30;
	 45	 65	 0.0062	 0.0673	 1.1156	 468	 468	 468	 0	 0	 1	-30	 30;
	 46	 56	 0	 0.0046	 0	 6867	 6867	 6867	 0	 0	 1	-30	 30;
	 46	 56	 0	 0.0046	 0	 6867	 6867	 6867	 0	 0	 1	-30	 30;
	 46	 68	 0.0062	 0.0673	 1.1156	 468	 468	 468	 0	 0	 1	-30	 30;
	 46	 68	 0.0062	 0.0673	 1.1156	 468	 468	 468	 0	 0	 1	-30	 30;
	 47	 52	 0.0108	 0.0965	 0.3296	 326	 326	 326	 0	 0	 1	-30	 30;
	 47	 60	 0.0108	 0.0965	 0.3296	 326	 326	 326	 0	 0	 1	-30	 30;
	 49	 50	 0.00179	 0.01405	 3.68	 2231	 2231	 2231	 0	 0	 1	-30	 30;
	 51	 53	 0.0007	 0.074	 4.87	 427	 427	 427	 0	 0	 1	-30	 30;
	 52	 53	 0.0007	 0.025	 4.87	 1263	 1263	 1263	 0	 0	 1	-30	 30;
	 51	 58	 0.0108	 0.0965	 0.3296	 326	 326	 326	 0	 0	 1	-30	 30;
	 51	 58	 0.0108	 0.0965	 0.3296	 326	 326	 326	 0	 0	 1	-30	 30;
	 51	 59	 0.0108	 0.0965	 0.3296	 326	 326	 326	 0	 0	 1	-30	 30;
	 57	 79	 0	 0.0046	 0	 6867	 6867	 6867	 0	 0	 1	-30	 30;
	 58	 59	 0.0108	 0.0965	 0.3296	 326	 326	 326	 0	 0	 1	-30	 30;
	 58	 60	 0.0108	 0.0965	 0.3296	 326	 326	 326	 0	 0	 1	-30	 30;
	 58	 60	 0.0108	 0.0965	 0.3296	 326	 326	 326	 0	 0	 1	-30	 30;
	 60	 77	 0.0108	 0.0965	 0.3296	 326	 326	 326	 0	 0	 1	-30	 30;
	 60	 77	 0.0108	 0.0965	 0.3296	 326	 326	 326	 0	 0	 1	-30	 30;
	 63	 65	 0.0062	 0.0673	 1.1156	 468	 468	 468	 0	 0	 1	-30	 30;
	 63	 65	 0.0062	 0.0673	 1.1156	 468	 468	 468	 0	 0	 1	-30	 30;
	 63	 66	 0.0108	 0.0965	 0.3296	 326	 326	 326	 0	 0	 1	-30	 30;
	 65	 66	 0.0062	 0.0673	 1.1156	 468	 468	 468	 0	 0	 1	-30	 30;
	 66	 74	 0.0108	 0.0965	 0.3296	 326	 326	 326	 0	 0	 1	-30	 30;
	 68	 69	 0.0024	 0.00332	 0.5849	 7711	 7711	 7711	 0	 0	 1	-30	 30;
	 68	 71	 0.0021	 0.00238	 0.3845	 9952	 9952	 9952	 0	 0	 1	-30	 30;
	 68	 76	 0.0016	 0.00226	 0.381	 11408	 11408	 11408	 0	 0	 1	-30	 30;
	 68	 76	 0.0016	 0.00226	 0.381	 11408	 11408	 11408	 0	 0	 1	-30	 30;
	 69	 70	 0.0052	 0.0602	 1.01	 523	 523	 523	 0	 0	 1	-30	 30;
	 69	 70	 0.0049	 0.0537	 0.8843	 586	 586	 586	 0	 0	 1	-30	 30;
	 69	 71	 0.0017	 0.00225	 0.3992	 11202	 11202	 11202	 0	 0	 1	-30	 30;
	 69	 71	 0.0021	 0.00238	 0.3845	 9952	 9952	 9952	 0	 0	 1	-30	 30;
	 69	 71	 0.0017	 0.00225	 0.3992	 11202	 11202	 11202	 0	 0	 1	-30	 30;
	 69	 71	 0.0021	 0.00238	 0.3845	 9952	 9952	 9952	 0	 0	 1	-30	 30;
	 69	 75	 0.0012	 0.0172	 0.2987	 1833	 1833	 1833	 0	 0	 1	-30	 30;
	 69	 76	 0.0008	 0.00106	 0.2039	 23786	 23786	 23786	 0	 0	 1	-30	 30;
	 69	 76	 0.0008	 0.00106	 0.2039	 23786	 23786	 23786	 0	 0	 1	-30	 30;
	 70	 71	 0.0032	 0.0349	 0.5722	 902	 902	 902	 0	 0	 1	-30	 30;
	 70	 72	 0.0096	 0.0878	 1.4265	 358	 358	 358	 0	 0	 1	-30	 30;
	 70	 74	 0.0034	 0.0374	 0.6208	 842	 842	 842	 0	 0	 1	-30	 30;
	 70	 74	 0.0034	 0.0372	 0.6182	 846	 846	 846	 0	 0	 1	-30	 30;
	 70	 75	 0.0034	 0.0392	 0.6524	 803	 803	 803	 0	 0	 1	-30	 30;
	 71	 74	 0.0038	 0.034	 0.5824	 924	 924	 924	 0	 0	 1	-30	 30;
	 71	 74	 0.0032	 0.0349	 0.5722	 902	 902	 902	 0	 0	 1	-30	 30;
	 71	 80	 0.00811	 0.1369	 2.4348	 231	 231	 231	 0	 0	 1	-30	 30;
	 79	 80	 0	 0.0046	 0	 6867	 6867	 6867	 0	 0	 1	-30	 30;
	 5	 12	 0	 0.0072	 0	 4388	 4388	 4388	 1	 0	 1	-30	 30;
	 10	 13	 0.0002	 0.01181	 0	 2675	 2675	 2675	 1	 0	 1	-30	 30;
	 10	 13	 9e-05	 0.00735	 0	 4298	 4298	 4298	 1	 0	 1	-30	 30;
	 11	 14	 0	 0.00221	 0	 14293	 14293	 14293	 1	 0	 1	-30	 30;
	 28	 29	 0	 0.01	 0	 3159	 3159	 3159	 1	 0	 1	-30	 30;
	 39	 40	 0	 0.01	 0	 3159	 3159	 3159	 1	 0	 1	-30	 30;
	 44	 45	 0	 0.0072	 0	 4388	 4388	 4388	 1	 0	 1	-30	 30;
	 46	 47	 0.0003	 0.0181	 0	 1745	 1745	 1745	 1	 0	 1	-30	 30;
	 49	 51	 0.0003	 0.0181	 0	 1745	 1745	 1745	 1	 0	 1	-30	 30;
	 50	 52	 0.0003	 0.0181	 0	 1745	 1745	 1745	 1	 0	 1	-30	 30;
	 56	 58	 0.0003	 0.0181	 0	 1745	 1745	 1745	 1	 0	 1	-30	 30;
	 57	 59	 0.0003	 0.0181	 0	 1745	 1745	 1745	 1	 0	 1	-30	 30;
	 63	 64	 0.00089	 0.0299	 0	 1056	 1056	 1056	 1	 0	 1	-30	 30;
	 63	 64	 0.00089	 0.0299	 0	 1056	 1056	 1056	 1	 0	 1	-30	 30;
	 68	 77	 0.0003	 0.0181	 0	 1745	 1745	 1745	 1	 0	 1	-30	 30;
	 68	 77	 0.0003	 0.0181	 0	 1745	 1745	 1745	 1	 0	 1	-30	 30;
	 72	 73	 0	 0.0195	 0	 1620	 1620	 1620	 0	 0	 1	-30	 30;
	 1	 2	 0	 0.0005	 0	 63175	 63175	 63175	 1	 0	 1	-30	 30;
	 3	 4	 0	 0.0005	 0	 63175	 63175	 63175	 1	 0	 1	-30	 30;
	 5	 15	 0	 0.0005	 0	 63175	 63175	 63175	 1	 0	 1	-30	 30;
	 9	 16	 0	 0.0005	 0	 63175	 63175	 63175	 1	 0	 1	-30	 30;
	 13	 17	 0	 0.0005	 0	 63175	 63175	 63175	 1	 0	 1	-30	 30;
	 26	 30	 0	 0.0005	 0	 63175	 63175	 63175	 1	 0	 1	-30	 30;
	 27	 31	 0	 0.0005	 0	 63175	 63175	 63175	 1	 0	 1	-30	 30;
	 32	 36	 0	 0.0005	 0	 63175	 63175	 63175	 1	 0	 1	-30	 30;
	 33	 37	 0	 0.0005	 0	 63175	 63175	 63175	 1	 0	 1	-30	 30;
	 38	 42	 0	 0.0005	 0	 63175	 63175	 63175	 1	 0	 1	-30	 30;
	 39	 43	 0	 0.0005	 0	 63175	 63175	 63175	 1	 0	 1	-30	 30;
	 45	 48	 0	 0.0005	 0	 63175	 63175	 63175	 1	 0	 1	-30	 30;
	 49	 54	 0	 0.0005	 0	 63175	 63175	 63175	 1	 0	 1	-30	 30;
	 53	 55	 0	 0.0005	 0	 63175	 63175	 63175	 1	 0	 1	-30	 30;
	 58	 61	 0	 0.0005	 0	 63175	 63175	 63175	 1	 0	 1	-30	 30;
	 60	 62	 0	 0.0005	 0	 63175	 63175	 63175	 1	 0	 1	-30	 30;
	 65	 67	 0	 0.0005	 0	 63175	 63175	 63175	 1	 0	 1	-30	 30;
	 70	 78	 0	 0.0005	 0	 63175	 63175	 63175	 1	 0	 1	-30	 30;
	 79	 81	 0	 0.0005	 0	 63175	 63175	 63175	 1	 0	 1	-30	 30;
	 80	 82	 0	 0.0005	 0	 63175	 63175	 63175	 1	 0	 1	-30	 30;
];

mpc_regionR2.gencost = [
%	2           startup     shutdown    n           c(n-1)...c0 
	 2	 0	 0	 3	 0	 50.253548	 0;
	 2	 0	 0	 3	 0	 7.78454	 0;
	 2	 0	 0	 3	 0	 7.164105	 0;
	 2	 0	 0	 3	 0	 25.623984	 0;
	 2	 0	 0	 3	 0	 14.12028	 0;
	 2	 0	 0	 3	 0	 32.489744	 0;
	 2	 0	 0	 3	 0	 32.920521	 0;
	 2	 0	 0	 3	 0	 28.879314	 0;
	 2	 0	 0	 3	 0	 7.795262	 0;
	 2	 0	 0	 3	 0	 14.49579	 0;
	 2	 0	 0	 3	 0	 33.529629	 0;
	 2	 0	 0	 3	 0	 14.148633	 0;
	 2	 0	 0	 3	 0	 22.360086	 0;
	 2	 0	 0	 3	 0	 23.153973	 0;
	 2	 0	 0	 3	 0	 32.076694	 0;
	 2	 0	 0	 3	 0	 31.799668	 0;
	 2	 0	 0	 3	 0	 48.375219	 0;
	 2	 0	 0	 3	 0	 20.048511	 0;
	 2	 0	 0	 3	 0	 13.581555	 0;
	 2	 0	 0	 3	 0	 31.58479	 0;
	 2	 0	 0	 3	 0	 45.195796	 0;
	 2	 0	 0	 3	 0	 39.759127	 0;
	 2	 0	 0	 3	 0	 14.530332	 0;
	 2	 0	 0	 3	 0	 15.136833	 0;
	 2	 0	 0	 3	 0	 42.828324	 0;
	 2	 0	 0	 3	 0	 14.38957	 0;
	 2	 0	 0	 3	 0	 38.966466	 0;
	 2	 0	 0	 3	 0	 15.486578	 0;
	 2	 0	 0	 3	 0	 41.492611	 0;
	 2	 0	 0	 3	 0	 28.466295	 0;
	 2	 0	 0	 3	 0	 27.25565	 0;
	 2	 0	 0	 3	 0	 24.837547	 0;
	 2	 0	 0	 3	 0	 28.019241	 0;
	 2	 0	 0	 3	 0	 11.786936	 0;
	 2	 0	 0	 3	 0	 29.985739	 0;
	 2	 0	 0	 3	 0	 28.815976	 0;
	 2	 0	 0	 3	 0	 37.698432	 0;
	 2	 0	 0	 3	 0	 48.831293	 0;
	 2	 0	 0	 3	 0	 32.211888	 0;
	 2	 0	 0	 3	 0	 105.104656	 0;
	 2	 0	 0	 3	 0	 37.879273	 0;
	 2	 0	 0	 3	 0	 33.634935	 0;
	 2	 0	 0	 3	 0	 30.107834	 0;
	 2	 0	 0	 3	 0	 37.793235	 0;
	 2	 0	 0	 3	 0	 31.239418	 0;
	 2	 0	 0	 3	 0	 28.663274	 0;
	 2	 0	 0	 3	 0	 24.405861	 0;
	 2	 0	 0	 3	 0	 38.01667	 0;
	 2	 0	 0	 3	 0	 32.247846	 0;
	 2	 0	 0	 3	 0	 24.38896	 0;
	 2	 0	 0	 3	 0	 11.81616	 0;
	 2	 0	 0	 3	 0	 29.852868	 0;
	 2	 0	 0	 3	 0	 28.252173	 0;
	 2	 0	 0	 3	 0	 102.698216	 0;
	 2	 0	 0	 3	 0	 23.707527	 0;
	 2	 0	 0	 3	 0	 26.935133	 0;
	 2	 0	 0	 3	 0	 19.266401	 0;
	 2	 0	 0	 3	 0	 27.88954	 0;
	 2	 0	 0	 3	 0	 20.456741	 0;
	 2	 0	 0	 3	 0	 26.092954	 0;
	 2	 0	 0	 3	 0	 37.210311	 0;
	 2	 0	 0	 3	 0	 27.338561	 0;
	 2	 0	 0	 3	 0	 7.157129	 0;
	 2	 0	 0	 3	 0	 38.956112	 0;
	 2	 0	 0	 3	 0	 40.642352	 0;
	 2	 0	 0	 3	 0	 18.781578	 0;
	 2	 0	 0	 3	 0	 43.330859	 0;
	 2	 0	 0	 3	 0	 31.905335	 0;
	 2	 0	 0	 3	 0	 9.594434	 0;
	 2	 0	 0	 3	 0	 25.215165	 0;
];


% -------------------- mpc_regionR3 --------------------

mpc_regionR3.version = '2';
mpc_regionR3.baseMVA = 100.0000;
mpc_regionR3.bus = [
%	bus_i       type        Pd          Qd          Gs          Bs          area        Vm          Va          baseKV      zone        Vmax        Vmin        
	 1	 1	 0	 0	 0	 0	 10	 1	 0	 500	 1	 1.1	 0.9;
	 2	 1	 226.84	-37.47	 0	 0	 10	 1	 0	 345	 1	 1.1	 0.9;
	 3	 1	 2825.92	 366.86	 0	 0	 10	 1	 0	 230	 1	 1.1	 0.9;
	 4	 2	 0	 0	 0	 0	 10	 1	 0	 20	 1	 1.1	 0.9;
	 5	 1	 4527.37	-137.04	 0	 0	 10	 1	 0	 500	 1	 1.1	 0.9;
	 6	 1	 231.56	 23	 0	 0	 10	 1	 0	 345	 1	 1.1	 0.9;
	 7	 2	 0	 0	 0	 0	 10	 1	 0	 20	 1	 1.1	 0.9;
	 8	 1	 166.99	-2.01	 0	 0	 10	 1	 0	 500	 1	 1.1	 0.9;
	 9	 1	 1149.11	 287.13	 0	 0	 10	 1	 0	 500	 1	 1.1	 0.9;
	 10	 2	 0	 0	 0	 0	 10	 1	 0	 20	 1	 1.1	 0.9;
	 11	 1	 3549.63	 352.83	 0	 0	 10	 1	 0	 500	 1	 1.1	 0.9;
	 12	 1	 23.04	 2.3	 0	 0	 10	 1	 0	 500	 1	 1.1	 0.9;
	 13	 1	 8182.71	 813.35	 0	 0	 10	 1	 0	 345	 1	 1.1	 0.9;
	 14	 2	 0	 0	 0	 0	 10	 1	 0	 20	 1	 1.1	 0.9;
	 15	 2	 0	 0	 0	 0	 10	 1	 0	 20	 1	 1.1	 0.9;
	 16	 1	 8576.94	 1524.59	 0	 0	 10	 1	 0	 500	 1	 1.1	 0.9;
	 17	 1	 5366.63	-600.16	 0	 0	 10	 1	 0	 500	 1	 1.1	 0.9;
	 18	 1	 0	 0	 0	 0	 10	 1	 0	 230	 1	 1.1	 0.9;
	 19	 2	 0	 0	 0	 0	 10	 1	 0	 20	 1	 1.1	 0.9;
	 20	 1	 2896.61	 287.92	 0	 0	 20	 1	 0	 230	 1	 1.1	 0.9;
	 21	 2	 0	 0	 0	 0	 20	 1	 0	 20	 1	 1.1	 0.9;
	 22	 1	 368.97	 54.83	 0	 0	 21	 1	 0	 230	 1	 1.1	 0.9;
	 23	 2	 0	 0	 0	 0	 21	 1	 0	 20	 1	 1.1	 0.9;
	 24	 1	 0	 0	 0	 0	 22	 1	 0	 500	 1	 1.1	 0.9;
	 25	 1	 2028.83	 268.56	 0	 0	 22	 1	 0	 230	 1	 1.1	 0.9;
	 26	 1	 2242.23	 278.27	 0	 0	 22	 1	 0	 230	 1	 1.1	 0.9;
	 27	 2	 0	 0	 0	 0	 22	 1	 0	 20	 1	 1.1	 0.9;
	 28	 1	 0	 0	 0	 0	 22	 1	 0	 500	 1	 1.1	 0.9;
	 29	 1	 0	 0	 0	 0	 22	 1	 0	 230	 1	 1.1	 0.9;
	 30	 2	 0	 0	 0	 0	 22	 1	 0	 20	 1	 1.1	 0.9;
	 31	 1	 1106.7	 76.66	 0	 0	 24	 1	 0	 500	 1	 1.1	 0.9;
	 32	 1	 1157.97	 105.21	 0	 0	 24	 1	 0	 500	 1	 1.1	 0.9;
	 33	 1	 1417.37	 81.98	 0	 0	 24	 1	 0	 500	 1	 1.1	 0.9;
	 34	 1	 1377.98	 38.54	 0	 0	 24	 1	 0	 500	 1	 1.1	 0.9;
	 35	 1	 0	 0	 0	 0	 24	 1	 0	 500	 1	 1.1	 0.9;
	 36	 1	 1082.28	 22.9	 0	 0	 24	 1	 0	 230	 1	 1.1	 0.9;
	 37	 1	 737.4	-40.75	 0	 0	 24	 1	 0	 230	 1	 1.1	 0.9;
	 38	 1	 1732.77	-36.53	 0	 0	 24	 1	 0	 230	 1	 1.1	 0.9;
	 39	 1	 1743.28	-72.62	 0	 0	 24	 1	 0	 230	 1	 1.1	 0.9;
	 40	 1	 1601.78	-86.7	 0	 0	 24	 1	 0	 230	 1	 1.1	 0.9;
	 41	 1	 2069.3	 58.18	 0	 0	 24	 1	 0	 230	 1	 1.1	 0.9;
	 42	 1	 1427.35	 75.95	 0	 0	 24	 1	 0	 230	 1	 1.1	 0.9;
	 43	 2	 0	 0	 0	 0	 24	 1	 0	 20	 1	 1.1	 0.9;
	 44	 1	 0	 0	 0	 0	 25	 1	 0	 500	 1	 1.1	 0.9;
	 45	 1	 2369.15	-91.91	 0	 0	 25	 1	 0	 230	 1	 1.1	 0.9;
	 46	 1	 2422.51	 201.99	 0	 0	 25	 1	 0	 230	 1	 1.1	 0.9;
	 47	 2	 0	 0	 0	 0	 25	 1	 0	 20	 1	 1.1	 0.9;
	 48	 1	-1863.9	 0	 0	 0	 90	 1	 0	 500	 1	 1.1	 0.9;
	 49	 1	 0	 0	 0	 0	 26	 1	 0	 500	 1	 1.1	 0.9;
	 50	 1	 130.29	 12.96	 0	 0	 26	 1	 0	 500	 1	 1.1	 0.9;
	 51	 1	 0	 0	 0	 0	 26	 1	 0	 500	 1	 1.1	 0.9;
	 52	 1	 0	 0	 0	 0	 26	 1	 0	 287	 1	 1.1	 0.9;
	 53	 1	 0	 0	 0	 0	 26	 1	 0	 287	 1	 1.1	 0.9;
	 54	 1	 0	 0	 0	 0	 26	 1	 0	 287	 1	 1.1	 0.9;
	 55	 1	 130.29	 12.96	 0	 0	 26	 1	 0	 230	 1	 1.1	 0.9;
	 56	 1	 175.89	 26.8	 0	 0	 26	 1	 0	 230	 1	 1.1	 0.9;
	 57	 1	 130.29	 12.96	 0	 0	 26	 1	 0	 230	 1	 1.1	 0.9;
	 58	 1	 130.29	 12.96	 0	 0	 26	 1	 0	 230	 1	 1.1	 0.9;
	 59	 1	 157.65	 24.82	 0	 0	 26	 1	 0	 230	 1	 1.1	 0.9;
	 60	 1	 416.93	 64.53	 0	 0	 26	 1	 0	 230	 1	 1.1	 0.9;
	 61	 1	 179.8	 27.8	 0	 0	 26	 1	 0	 230	 1	 1.1	 0.9;
	 62	 1	 1052.48	 131.15	 0	 0	 26	 1	 0	 230	 1	 1.1	 0.9;
	 63	 1	 152.44	 23.83	 0	 0	 26	 1	 0	 230	 1	 1.1	 0.9;
	 64	 1	 157.65	 24.82	 0	 0	 26	 1	 0	 230	 1	 1.1	 0.9;
	 65	 1	 881.3	-6.16	 0	 0	 26	 1	 0	 230	 1	 1.1	 0.9;
	 66	 1	-2773.83	 0	 0	 0	 90	 1	 0	 230	 1	 1.1	 0.9;
	 67	 1	 267.35	 17.47	 0	 0	 26	 1	 0	 230	 1	 1.1	 0.9;
	 68	 1	 235.49	-62.74	 0	 0	 26	 1	 0	 138	 1	 1.1	 0.9;
	 69	 2	 0	 0	 0	 0	 26	 1	 0	 20	 1	 1.1	 0.9;
	 70	 2	 0	 0	 0	 0	 26	 1	 0	 20	 1	 1.1	 0.9;
	 71	 2	 0	 0	 0	 0	 26	 1	 0	 20	 1	 1.1	 0.9;
	 72	 2	 0	 0	 0	 0	 26	 1	 0	 20	 1	 1.1	 0.9;
	 73	 1	 0	 0	 0	 0	 24	 1	 0	 500	 1	 1.1	 0.9;
	 74	 1	 0	 0	 0	 0	 24	 1	 0	 500	 1	 1.1	 0.9;
	 75	 1	 0	 0	 0	 0	 38	 1	 0	 500	 1	 1.1	 0.9;
	 76	 1	 0	 0	 0	 0	 38	 1	 0	 500	 1	 1.1	 0.9;
	 77	 1	 0	 0	 0	 0	 38	 1	 0	 500	 1	 1.1	 0.9;
];

mpc_regionR3.gen = [
%	bus         Pg          Qg          Qmax        Qmin        Vg          mBase       status      Pmax        Pmin        Pc1         Pc2         Qc1min      Qc1max      Qc2min      Qc2max      ramp_agc    ramp_10     ramp_30     ramp_q      apf         
	 4	 743.5	 0	 1030	-1030	 1	 100	 1	 1487	 0;
	 4	 517.5	 0	 518	-518	 1	 100	 1	 1035	 0;
	 7	 886.5	 0	 887	-887	 1	 100	 1	 1773	 0;
	 7	 886.5	 0	 1916	-1916	 1	 100	 1	 1773	 0;
	 7	 923.5	 0	 924	-924	 1	 100	 1	 1847	 0;
	 10	 726.5	 0	 1208	-1208	 1	 100	 1	 1453	 0;
	 10	 571.5	 0	 628	-628	 1	 100	 1	 1143	 0;
	 14	 1208.5	 0	 1209	-1209	 1	 100	 1	 2417	 0;
	 14	 1239	 0	 1239	-1239	 1	 100	 1	 2478	 0;
	 15	 1474.5	 0	 1475	-1475	 1	 100	 1	 2949	 0;
	 15	 1438	 0	 2746	-2746	 1	 100	 1	 2876	 0;
	 15	 1578.5	 0	 1579	-1579	 1	 100	 1	 3157	 0;
	 19	 2419.5	 0	 3559	-3559	 1	 100	 1	 4839	 0;
	 19	 2419.5	 0	 2420	-2420	 1	 100	 1	 4839	 0;
	 19	 2589.5	 0	 2590	-2590	 1	 100	 1	 5179	 0;
	 21	 1045.5	 0	 1070	-1070	 1	 100	 1	 2091	 0;
	 21	 774.5	 0	 775	-775	 1	 100	 1	 1549	 0;
	 23	 297	 0	 297	-297	 1	 100	 1	 594	 0;
	 23	 388	 0	 388	-388	 1	 100	 1	 776	 0;
	 23	 297	 0	 297	-297	 1	 100	 1	 594	 0;
	 23	 275.5	 0	 276	-276	 1	 100	 1	 551	 0;
	 27	 565.5	 0	 566	-566	 1	 100	 1	 1131	 0;
	 27	 635	 0	 635	-635	 1	 100	 1	 1270	 0;
	 27	 635	 0	 635	-635	 1	 100	 1	 1270	 0;
	 30	 703.5	 0	 704	-704	 1	 100	 1	 1407	 0;
	 43	 467	 130.5	 728	-467	 1	 100	 1	 934	 0;
	 43	 627	 367	 1902	-1168	 1	 100	 1	 1254	 0;
	 43	 444.5	 624	 2301	-1053	 1	 100	 1	 889	 0;
	 43	 651.5	 3.5	 659	-652	 1	 100	 1	 1303	 0;
	 43	 485	 0	 485	-485	 1	 100	 1	 970	 0;
	 43	 536.5	 4	 561	-553	 1	 100	 1	 1073	 0;
	 43	 477.5	 380	 1910	-1150	 1	 100	 1	 955	 0;
	 43	-503	 0	 88.8	-88.8	 1	 100	 1	 0	-1006;
	 47	 2423.5	 0	 2424	-2424	 1	 100	 1	 4847	 0;
	 69	 560	 0	 1346	-1346	 1	 100	 1	 1120	 0;
	 70	 895.5	 0	 896	-896	 1	 100	 1	 1791	 0;
	 71	 2350	 0	 2350	-2350	 1	 100	 1	 4700	 0;
	 72	-516.5	 0	 120	-120	 1	 100	 1	 239	-1272;
];

mpc_regionR3.branch = [
%	fbus        tbus        r           x           b           rateA       rateB       rateC       ratio       angle       status      angmin      angmax      
	 1	 8	 0.00177	 0.03169	 3.3446	 996	 996	 996	 0	 0	 1	-30	 30;
	 1	 9	 0.0108	 0.0965	 0.3296	 326	 326	 326	 0	 0	 1	-30	 30;
	 2	 6	 0.00179	 0.01988	 2.576	 1583	 1583	 1583	 0	 0	 1	-30	 30;
	 2	 6	 0.00179	 0.01988	 2.576	 1583	 1583	 1583	 0	 0	 1	-30	 30;
	 5	 16	 0.0028	 0.0211	 1.0194	 1485	 1485	 1485	 0	 0	 1	-30	 30;
	 5	 16	 0.0028	 0.0211	 1.0194	 1485	 1485	 1485	 0	 0	 1	-30	 30;
	 8	 9	 0.00077	 0.00536	 1.39842	 5834	 5834	 5834	 0	 0	 1	-30	 30;
	 8	 17	 0.00179	 0.02592	 3.3922	 1216	 1216	 1216	 0	 0	 1	-30	 30;
	 8	 73	 0.00207	 0.01369	 3.9516	 2282	 2282	 2282	 0	 0	 1	-30	 30;
	 9	 12	 0.0028	 0.0211	 1.0194	 1485	 1485	 1485	 0	 0	 1	-30	 30;
	 9	 17	 0.00241	 0.03489	 4.8656	 904	 904	 904	 0	 0	 1	-30	 30;
	 11	 12	 0.0028	 0.0211	 1.0194	 1485	 1485	 1485	 0	 0	 1	-30	 30;
	 11	 17	 0.0028	 0.0211	 1.0194	 1485	 1485	 1485	 0	 0	 1	-30	 30;
	 11	 17	 0.0062	 0.0673	 1.1156	 468	 468	 468	 0	 0	 1	-30	 30;
	 11	 51	 0.00179	 0.02524	 0.53546	 1249	 1249	 1249	 0	 0	 1	-30	 30;
	 11	 73	 0.0108	 0.0965	 0.3296	 326	 326	 326	 0	 0	 1	-30	 30;
	 16	 17	 0.0004	 0.0096	 0.9038	 3288	 3288	 3288	 0	 0	 1	-30	 30;
	 16	 17	 0.0004	 0.0096	 0.9038	 3288	 3288	 3288	 0	 0	 1	-30	 30;
	 16	 28	 0.00259	 0.02967	 2.153	 1061	 1061	 1061	 0	 0	 1	-30	 30;
	 16	 31	 0.00259	 0.02967	 2.153	 1061	 1061	 1061	 0	 0	 1	-30	 30;
	 18	 22	 0.00845	 0.07034	 0.15954	 446	 446	 446	 0	 0	 1	-30	 30;
	 20	 25	 0.00138	 0.05399	 0.15252	 585	 585	 585	 0	 0	 1	-30	 30;
	 20	 29	 0.00138	 0.05399	 0.15252	 585	 585	 585	 0	 0	 1	-30	 30;
	 22	 29	 0.00845	 0.07034	 0.15954	 446	 446	 446	 0	 0	 1	-30	 30;
	 24	 28	 0.00179	 0.02524	 2.153	 1249	 1249	 1249	 0	 0	 1	-30	 30;
	 25	 26	 0.00312	 0.02886	 0.15252	 1089	 1089	 1089	 0	 0	 1	-30	 30;
	 25	 26	 0.00312	 0.02886	 0.15252	 1089	 1089	 1089	 0	 0	 1	-30	 30;
	 25	 46	 0.00312	 0.02886	 0.15252	 1089	 1089	 1089	 0	 0	 1	-30	 30;
	 26	 46	 0.00312	 0.02886	 0.15252	 1089	 1089	 1089	 0	 0	 1	-30	 30;
	 26	 46	 0.00312	 0.02886	 0.15252	 1089	 1089	 1089	 0	 0	 1	-30	 30;
	 31	 34	 0.00042	 0.00905	 0.66794	 3487	 3487	 3487	 0	 0	 1	-30	 30;
	 32	 33	 0.00028	 0.00753	 0.51736	 4192	 4192	 4192	 0	 0	 1	-30	 30;
	 32	 33	 0.00035	 0.0075	 0.5536	 4208	 4208	 4208	 0	 0	 1	-30	 30;
	 32	 35	 0.00044	 0.01125	 0.8292	 2806	 2806	 2806	 0	 0	 1	-30	 30;
	 32	 35	 0.00044	 0.01125	 0.8292	 2806	 2806	 2806	 0	 0	 1	-30	 30;
	 32	 44	 0.0006	 0.0128	 0.9462	 2466	 2466	 2466	 0	 0	 1	-30	 30;
	 32	 51	 0.0002	 0.0041	 0.2962	 7696	 7696	 7696	 0	 0	 1	-30	 30;
	 32	 73	 0.00193	 0.02779	 4.6712	 1134	 1134	 1134	 0	 0	 1	-30	 30;
	 32	 74	 0.0019	 0.031	 4.1402	 1018	 1018	 1018	 0	 0	 1	-30	 30;
	 33	 44	 0.00021	 0.00457	 0.32336	 6905	 6905	 6905	 0	 0	 1	-30	 30;
	 34	 44	 0.0004	 0.0093	 0.6856	 3394	 3394	 3394	 0	 0	 1	-30	 30;
	 35	 75	 0	-0.00935	 0	 3379	 3379	 3379	 0	 0	 1	-30	 30;
	 35	 76	 0	-0.00935	 0	 3379	 3379	 3379	 0	 0	 1	-30	 30;
	 35	 77	 0	-0.0084	 0	 3761	 3761	 3761	 0	 0	 1	-30	 30;
	 36	 37	 0.0014	 0.0264	 0.102	 1195	 1195	 1195	 0	 0	 1	-30	 30;
	 36	 41	 0.00065	 0.01187	 0.04672	 2658	 2658	 2658	 0	 0	 1	-30	 30;
	 36	 41	 0.00065	 0.01187	 0.04672	 2658	 2658	 2658	 0	 0	 1	-30	 30;
	 37	 39	 0.0019	 0.0258	 0.0984	 1222	 1222	 1222	 0	 0	 1	-30	 30;
	 37	 41	 0.00845	 0.07034	 0.15954	 446	 446	 446	 0	 0	 1	-30	 30;
	 38	 39	 0.0011	 0.0127	 0.048	 2478	 2478	 2478	 0	 0	 1	-30	 30;
	 39	 40	 0.00138	 0.05399	 0.15252	 585	 585	 585	 0	 0	 1	-30	 30;
	 39	 40	 0.00138	 0.05399	 0.15252	 585	 585	 585	 0	 0	 1	-30	 30;
	 39	 42	 0.0032	 0.0395	 0.144	 798	 798	 798	 0	 0	 1	-30	 30;
	 39	 45	 0.00312	 0.02886	 0.15252	 1089	 1089	 1089	 0	 0	 1	-30	 30;
	 40	 45	 0.00312	 0.02886	 0.15252	 1089	 1089	 1089	 0	 0	 1	-30	 30;
	 40	 46	 0.00312	 0.02886	 0.15252	 1089	 1089	 1089	 0	 0	 1	-30	 30;
	 41	 42	 0.00285	 0.03649	 0.12656	 864	 864	 864	 0	 0	 1	-30	 30;
	 41	 42	 0.00138	 0.03399	 0.11252	 929	 929	 929	 0	 0	 1	-30	 30;
	 45	 46	 0.00312	 0.02886	 0.15252	 1089	 1089	 1089	 0	 0	 1	-30	 30;
	 45	 46	 0.00312	 0.02886	 0.15252	 1089	 1089	 1089	 0	 0	 1	-30	 30;
	 73	 74	 0.00056	 0.01415	 1.0429	 2231	 2231	 2231	 0	 0	 1	-30	 30;
	 48	 50	 0.00082	 0.01668	 1.18802	 1892	 1892	 1892	 0	 0	 1	-30	 30;
	 48	 51	 0	 0.00159	 0.12002	 19867	 19867	 19867	 0	 0	 1	-30	 30;
	 48	 51	 0	 0.00159	 0.12002	 19867	 19867	 19867	 0	 0	 1	-30	 30;
	 48	 49	 0.00074	 0.01861	 1.40264	 1696	 1696	 1696	 0	 0	 1	-30	 30;
	 49	 51	 0.00083	 0.01884	 1.66668	 1675	 1675	 1675	 0	 0	 1	-30	 30;
	 51	 73	 0.00179	 0.02524	 0.53546	 1249	 1249	 1249	 0	 0	 1	-30	 30;
	 52	 54	 0.0107	 0.07905	 0.3667	 396	 396	 396	 0	 0	 1	-30	 30;
	 53	 54	 0.0107	 0.07905	 0.3667	 396	 396	 396	 0	 0	 1	-30	 30;
	 55	 58	 0.00221	 0.03346	 0.07338	 942	 942	 942	 0	 0	 1	-30	 30;
	 55	 59	 0.0029	 0.038	 0.0824	 829	 829	 829	 0	 0	 1	-30	 30;
	 55	 65	 0.00309	 0.04677	 0.1008	 674	 674	 674	 0	 0	 1	-30	 30;
	 55	 66	 0.00226	 0.03422	 0.07506	 922	 922	 922	 0	 0	 1	-30	 30;
	 56	 62	 0.00047	 0.00723	 0.01624	 4360	 4360	 4360	 0	 0	 1	-30	 30;
	 56	 64	 0.00035	 0.00536	 0.01204	 5881	 5881	 5881	 0	 0	 1	-30	 30;
	 57	 60	 0.0022	 0.03422	 0.07716	 922	 922	 922	 0	 0	 1	-30	 30;
	 57	 60	 0.00238	 0.03669	 0.08284	 860	 860	 860	 0	 0	 1	-30	 30;
	 57	 63	 0.00201	 0.03074	 0.06886	 1026	 1026	 1026	 0	 0	 1	-30	 30;
	 57	 64	 0.00281	 0.04296	 0.09648	 734	 734	 734	 0	 0	 1	-30	 30;
	 58	 59	 0.00029	 0.00434	 0.0095	 7262	 7262	 7262	 0	 0	 1	-30	 30;
	 59	 62	 0.00229	 0.01583	 0.0306	 1975	 1975	 1975	 0	 0	 1	-30	 30;
	 59	 62	 0.00229	 0.01583	 0.0306	 1975	 1975	 1975	 0	 0	 1	-30	 30;
	 59	 65	 0.00141	 0.00967	 0.0194	 3233	 3233	 3233	 0	 0	 1	-30	 30;
	 59	 65	 0.00141	 0.00967	 0.0194	 3233	 3233	 3233	 0	 0	 1	-30	 30;
	 59	 65	 0.00161	 0.00971	 0.01928	 3210	 3210	 3210	 0	 0	 1	-30	 30;
	 59	 65	 0.00161	 0.00971	 0.01928	 3210	 3210	 3210	 0	 0	 1	-30	 30;
	 59	 66	 0.00027	 0.00393	 0.00918	 8019	 8019	 8019	 0	 0	 1	-30	 30;
	 59	 66	 0.00027	 0.00393	 0.00918	 8019	 8019	 8019	 0	 0	 1	-30	 30;
	 59	 66	 0.00027	 0.00393	 0.00918	 8019	 8019	 8019	 0	 0	 1	-30	 30;
	 59	 67	 0.00138	 0.01116	 0.0247	 2810	 2810	 2810	 0	 0	 1	-30	 30;
	 59	 67	 0.00138	 0.01116	 0.0247	 2810	 2810	 2810	 0	 0	 1	-30	 30;
	 60	 63	 0.00037	 0.00366	 0.0083	 8587	 8587	 8587	 0	 0	 1	-30	 30;
	 60	 64	 0.00055	 0.00586	 0.01246	 5367	 5367	 5367	 0	 0	 1	-30	 30;
	 61	 63	 0.00073	 0.01025	 0.02558	 3074	 3074	 3074	 0	 0	 1	-30	 30;
	 61	 63	 0.00073	 0.01025	 0.02558	 3074	 3074	 3074	 0	 0	 1	-30	 30;
	 62	 64	 0.00119	 0.01244	 0.02798	 2528	 2528	 2528	 0	 0	 1	-30	 30;
	 62	 64	 0.00119	 0.01244	 0.02798	 2528	 2528	 2528	 0	 0	 1	-30	 30;
	 62	 67	 0.00128	 0.00979	 0.0212	 3200	 3200	 3200	 0	 0	 1	-30	 30;
	 63	 64	 0.0011	 0.01189	 0.02514	 2646	 2646	 2646	 0	 0	 1	-30	 30;
	 1	 2	 0	 0.011	 0	 2872	 2872	 2872	 1	 0	 1	-30	 30;
	 1	 2	 0	 0.011	 0	 2872	 2872	 2872	 1	 0	 1	-30	 30;
	 2	 3	 0.00028	 0.0138	 0	 2289	 2289	 2289	 1	 0	 1	-30	 30;
	 2	 3	 0.00029	 0.0139	 0	 2272	 2272	 2272	 1	 0	 1	-30	 30;
	 5	 6	 0	 0.0146	 0	 2164	 2164	 2164	 1	 0	 1	-30	 30;
	 5	 6	 0	 0.0146	 0	 2164	 2164	 2164	 1	 0	 1	-30	 30;
	 12	 13	 0	 0.0072	 0	 4388	 4388	 4388	 1	 0	 1	-30	 30;
	 16	 18	 0.00028	 0.0138	 0	 2289	 2289	 2289	 1	 0	 1	-30	 30;
	 22	 31	 0.00028	 0.0138	 0	 2289	 2289	 2289	 1	 0	 1	-30	 30;
	 24	 25	 0	 0.005	 0	 6318	 6318	 6318	 1	 0	 1	-30	 30;
	 24	 25	 0	 0.005	 0	 6318	 6318	 6318	 1	 0	 1	-30	 30;
	 28	 29	 0	 0.005	 0	 6318	 6318	 6318	 1	 0	 1	-30	 30;
	 28	 29	 0	 0.005	 0	 6318	 6318	 6318	 1	 0	 1	-30	 30;
	 33	 40	 0	 0.005	 0	 6318	 6318	 6318	 1	 0	 1	-30	 30;
	 35	 42	 0	 0.01149	 0	 2750	 2750	 2750	 1	 0	 1	-30	 30;
	 35	 42	 0	 0.01149	 0	 2750	 2750	 2750	 1	 0	 1	-30	 30;
	 35	 42	 0	 0.01149	 0	 2750	 2750	 2750	 1	 0	 1	-30	 30;
	 36	 66	 0	 0.00115	 0	 27468	 27468	 27468	 0	 0	 1	-30	 30;
	 44	 45	 0	 0.005	 0	 6318	 6318	 6318	 1	 0	 1	-30	 30;
	 44	 45	 0	 0.005	 0	 6318	 6318	 6318	 1	 0	 1	-30	 30;
	 44	 45	 0	 0.005	 0	 6318	 6318	 6318	 1	 0	 1	-30	 30;
	 49	 59	 0.00026	 0.01386	 0	 2279	 2279	 2279	 1	 0	 1	-30	 30;
	 50	 62	 0.00013	 0.01386	 0	 2279	 2279	 2279	 1	 0	 1	-30	 30;
	 50	 62	 0.00013	 0.01386	 0	 2279	 2279	 2279	 1	 0	 1	-30	 30;
	 51	 54	 0.0002	 0.02338	 0	 1351	 1351	 1351	 1	 0	 1	-30	 30;
	 52	 68	 0.00059	 0.01491	 0	 2117	 2117	 2117	 1	 0	 1	-30	 30;
	 53	 68	 0.00059	 0.01491	 0	 2117	 2117	 2117	 1	 0	 1	-30	 30;
	 61	 68	 0.0003	 0.0133	 0	 2375	 2375	 2375	 1	 0	 1	-30	 30;
	 61	 68	 0.0003	 0.0134	 0	 2357	 2357	 2357	 1	 0	 1	-30	 30;
	 2	 4	 0	 0.0005	 0	 63175	 63175	 63175	 1	 0	 1	-30	 30;
	 5	 7	 0	 0.0005	 0	 63175	 63175	 63175	 1	 0	 1	-30	 30;
	 9	 10	 0	 0.0005	 0	 63175	 63175	 63175	 1	 0	 1	-30	 30;
	 11	 14	 0	 0.0005	 0	 63175	 63175	 63175	 1	 0	 1	-30	 30;
	 13	 15	 0	 0.0005	 0	 63175	 63175	 63175	 1	 0	 1	-30	 30;
	 16	 19	 0	 0.0005	 0	 63175	 63175	 63175	 1	 0	 1	-30	 30;
	 20	 21	 0	 0.0005	 0	 63175	 63175	 63175	 1	 0	 1	-30	 30;
	 22	 23	 0	 0.0005	 0	 63175	 63175	 63175	 1	 0	 1	-30	 30;
	 26	 27	 0	 0.0005	 0	 63175	 63175	 63175	 1	 0	 1	-30	 30;
	 29	 30	 0	 0.0005	 0	 63175	 63175	 63175	 1	 0	 1	-30	 30;
	 39	 43	 0	 0.0005	 0	 63175	 63175	 63175	 1	 0	 1	-30	 30;
	 46	 47	 0	 0.0005	 0	 63175	 63175	 63175	 1	 0	 1	-30	 30;
	 55	 72	 0	 0.0005	 0	 63175	 63175	 63175	 1	 0	 1	-30	 30;
	 57	 69	 0	 0.0005	 0	 63175	 63175	 63175	 1	 0	 1	-30	 30;
	 58	 70	 0	 0.0005	 0	 63175	 63175	 63175	 1	 0	 1	-30	 30;
	 59	 71	 0	 0.0005	 0	 63175	 63175	 63175	 1	 0	 1	-30	 30;
];

mpc_regionR3.gencost = [
%	2           startup     shutdown    n           c(n-1)...c0 
	 2	 0	 0	 3	 0	 23.55253	 0;
	 2	 0	 0	 3	 0	 17.52574	 0;
	 2	 0	 0	 3	 0	 32.436958	 0;
	 2	 0	 0	 3	 0	 31.156469	 0;
	 2	 0	 0	 3	 0	 22.737499	 0;
	 2	 0	 0	 3	 0	 19.952184	 0;
	 2	 0	 0	 3	 0	 31.242137	 0;
	 2	 0	 0	 3	 0	 24.807784	 0;
	 2	 0	 0	 3	 0	 28.383968	 0;
	 2	 0	 0	 3	 0	 34.755431	 0;
	 2	 0	 0	 3	 0	 7.698014	 0;
	 2	 0	 0	 3	 0	 105.404954	 0;
	 2	 0	 0	 3	 0	 40.082606	 0;
	 2	 0	 0	 3	 0	 25.63009	 0;
	 2	 0	 0	 3	 0	 103.348768	 0;
	 2	 0	 0	 3	 0	 6.769987	 0;
	 2	 0	 0	 3	 0	 11.50831	 0;
	 2	 0	 0	 3	 0	 37.856831	 0;
	 2	 0	 0	 3	 0	 36.108116	 0;
	 2	 0	 0	 3	 0	 49.860247	 0;
	 2	 0	 0	 3	 0	 19.863282	 0;
	 2	 0	 0	 3	 0	 28.216009	 0;
	 2	 0	 0	 3	 0	 25.247027	 0;
	 2	 0	 0	 3	 0	 39.435718	 0;
	 2	 0	 0	 3	 0	 22.418634	 0;
	 2	 0	 0	 3	 0	 25.395707	 0;
	 2	 0	 0	 3	 0	 112.919983	 0;
	 2	 0	 0	 3	 0	 29.447096	 0;
	 2	 0	 0	 3	 0	 27.360187	 0;
	 2	 0	 0	 3	 0	 43.054554	 0;
	 2	 0	 0	 3	 0	 21.95488	 0;
	 2	 0	 0	 3	 0	 21.935047	 0;
	 2	 0	 0	 3	 0	 0	 0;
	 2	 0	 0	 3	 0	 32.738635	 0;
	 2	 0	 0	 3	 0	 24.642891	 0;
	 2	 0	 0	 3	 0	 17.386501	 0;
	 2	 0	 0	 3	 0	 36.008261	 0;
	 2	 0	 0	 3	 0	 33.638878	 0;
];


% ---------- Interregional Tie-Line Information ----------
% Each row: {From_Region (string), To_Region (string), Branch_Data (1x13 array)}
% Branch_Data: {fbus, tbus, r, x, b, rateA, rateB, rateC, ratio, angle, status, angmin, angmax}

interregional_tielines_total = {
	{'mpc_regionR3', 'mpc_regionR2', [ 2	 1	 0.0005	 0.0053	 0.0882	 5934	 5934	 5934	 0	 0	 1	-30	 30]},
	{'mpc_regionR3', 'mpc_regionR2', [ 2	 73	 0.0048	 0.0436	 0.7078	 721	 721	 721	 0	 0	 1	-30	 30]},
	{'mpc_regionR3', 'mpc_regionR2', [ 13	 74	 0.00811	 0.1369	 1.1156	 231	 231	 231	 0	 0	 1	-30	 30]},
	{'mpc_regionR1', 'mpc_regionR3', [ 43	 75	 0.00123	 0.02659	 1.98702	 1187	 1187	 1187	 0	 0	 1	-30	 30]},
	{'mpc_regionR1', 'mpc_regionR3', [ 44	 76	 0.00123	 0.02662	 1.9888	 1186	 1186	 1186	 0	 0	 1	-30	 30]},
	{'mpc_regionR1', 'mpc_regionR3', [ 45	 77	 0.00112	 0.02517	 1.83586	 1254	 1254	 1254	 0	 0	 1	-30	 30]},
	{'mpc_regionR1', 'mpc_regionR2', [ 51	 5	 0.00053	 0.00456	 0	 6881	 6881	 6881	 0	 0	 1	-30	 30]},
	{'mpc_regionR1', 'mpc_regionR2', [ 51	 5	 0.00053	 0.00456	 0	 6881	 6881	 6881	 0	 0	 1	-30	 30]},
	{'mpc_regionR2', 'mpc_regionR1', [ 5	 75	 0.00106	 0.01293	 0	 2435	 2435	 2435	 0	 0	 1	-30	 30]},
	{'mpc_regionR1', 'mpc_regionR2', [ 31	 64	 0.00089	 0.0299	 0	 1056	 1056	 1056	 0	 0	 1	-30	 30]},
	{'mpc_regionR1', 'mpc_regionR2', [ 31	 64	 0.00089	 0.0299	 0	 1056	 1056	 1056	 0	 0	 1	-30	 30]},
};

